<?xml version="1.0" encoding="UTF-8"?>
<routes>
  <vType accel="3.0" decel="6.0" id="CarA" length="5.0" minGap="2.5" maxSpeed="50.0" sigma="0.5" />
  <vType accel="2.0" decel="6.0" id="CarB" length="7.5" minGap="2.5" maxSpeed="50.0" sigma="0.5" />
  <vType accel="3.0" decel="5.0" id="CarC" length="5.0" minGap="2.5" maxSpeed="40.0" sigma="0.5" />
  <vType accel="3.0" decel="5.0" id="CarD" length="7.5" minGap="2.5" maxSpeed="30.0" sigma="0.5" />
  <route id="route01" edges="-0.0.00 0.0.00"/>
  <route id="route02" edges="0.0.00 -0.0.00"/>
   <vehicle depart="0" id="veh0" route="route01" type="CarD" color="1,0,0" />
   <vehicle depart="0" id="veh1" route="route01" type="CarC" color="1,0,0" />

   <vehicle depart="0" id="veh2" route="route01" type="CarA" color="1,0,0" />
   <vehicle depart="0" id="veh3" route="route01" type="CarA" color="1,0,0" />
</routes>