<?xml version="1.0" encoding="UTF-8"?>

<!-- generated on Wed May 27 14:29:17 2020 by SUMO netconvert Version 0.32.0
<?xml version="1.0" encoding="UTF-8"?>

<configuration xmlns:xsi="http://www.w3.org/2001/XMLSchema-instance" xsi:noNamespaceSchemaLocation="http://sumo.dlr.de/xsd/netconvertConfiguration.xsd">

    <input>
        <opendrive-files value="esmini/resources/xodr/e6mini.xodr"/>
    </input>

    <output>
        <output-file value="e6mini.net.xml"/>
    </output>

    <tls_building>
        <tls.left-green.time value="0"/>
    </tls_building>

    <processing>
        <rectangular-lane-cut value="true"/>
    </processing>

</configuration>
-->

<net version="0.27" rectangularLaneCut="true" xmlns:xsi="http://www.w3.org/2001/XMLSchema-instance" xsi:noNamespaceSchemaLocation="http://sumo.dlr.de/xsd/net_file.xsd">

    <location netOffset="0.00,0.00" convBoundary="0.00,0.00,156.89,1451.91" origBoundary="0.00,0.00,156.89,1451.91" projParameter="!"/>

    <type id="OffRamp" priority="1" speed="22.22" allow="private emergency authority army vip passenger hov taxi bus coach delivery truck trailer motorcycle evehicle custom1 custom2" width="3.65"/>
    <type id="OnRamp" priority="1" speed="22.22" allow="private emergency authority army vip passenger hov taxi bus coach delivery truck trailer motorcycle evehicle custom1 custom2" width="3.65"/>
    <type id="bidirectional" priority="1" speed="1.39" disallow="tram rail_urban rail rail_electric pedestrian ship" width="3.65"/>
    <type id="border" priority="0" speed="1.39" disallow="all" discard="1" width="0.10"/>
    <type id="driving" priority="1" speed="13.89" disallow="tram rail_urban rail rail_electric pedestrian ship" width="3.65"/>
    <type id="entry" priority="1" speed="22.22" disallow="tram rail_urban rail rail_electric pedestrian ship" width="3.65"/>
    <type id="exit" priority="1" speed="22.22" disallow="tram rail_urban rail rail_electric pedestrian ship" width="3.65"/>
    <type id="median" priority="0" speed="1.39" disallow="all" discard="1" width="0.10"/>
    <type id="mwyEntry" priority="1" speed="22.22" allow="private emergency authority army vip passenger hov taxi bus coach delivery truck trailer motorcycle evehicle custom1 custom2" width="3.65"/>
    <type id="mwyExit" priority="1" speed="22.22" allow="private emergency authority army vip passenger hov taxi bus coach delivery truck trailer motorcycle evehicle custom1 custom2" width="3.65"/>
    <type id="none" priority="0" speed="1.39" disallow="all" discard="1" width="1.00"/>
    <type id="parking" priority="1" speed="1.39" disallow="tram rail_urban rail rail_electric pedestrian ship" width="2.50"/>
    <type id="rail" priority="3" speed="33.33" allow="rail_urban rail rail_electric" width="3.65"/>
    <type id="restricted" priority="0" speed="13.89" disallow="all" width="3.65"/>
    <type id="roadWorks" priority="0" speed="1.39" allow="authority" width="3.65"/>
    <type id="shoulder" priority="0" speed="1.39" disallow="all" discard="1" width="1.00"/>
    <type id="special1" priority="1" speed="22.22" allow="custom1" discard="1" width="3.65"/>
    <type id="special2" priority="1" speed="22.22" allow="custom2" discard="1" width="3.65"/>
    <type id="special3" priority="1" speed="22.22" allow="custom1 custom2" discard="1" width="3.65"/>
    <type id="stop" priority="1" speed="13.89" disallow="tram rail_urban rail rail_electric pedestrian ship" width="3.65"/>
    <type id="tram" priority="2" speed="13.89" allow="tram" width="3.65"/>

    <edge id=":0.begin_0" function="internal">
        <lane id=":0.begin_0_0" index="0" disallow="tram rail_urban rail rail_electric pedestrian ship" speed="13.89" length="5.48" width="3.65" shape="-1.87,0.01 -0.94,-1.40 -0.01,-1.87 0.93,-1.41 1.87,-0.01"/>
    </edge>
    <edge id=":0.end_0" function="internal">
        <lane id=":0.end_0_0" index="0" disallow="tram rail_urban rail rail_electric pedestrian ship" speed="13.89" length="5.48" width="3.65" shape="158.73,1451.55,-2.71 158.09,1453.11,-2.71 157.26,1453.75,-2.71 156.25,1453.47,-2.71 155.05,1452.28,-2.71"/>
    </edge>

    <edge id="-0.0.00" from="0.begin" to="0.end" priority="1" type="stop|driving|driving|driving" shape="0.00,0.00 0.01,1.98,-0.00 0.01,3.95,-0.00 0.02,5.93,-0.00 0.03,7.90,-0.00 0.03,9.88,-0.00 0.04,11.86,-0.00 0.05,13.83,-0.00 0.05,15.81,-0.00 0.06,17.78,-0.01 0.07,19.76,-0.01 0.07,21.73,-0.01 0.08,23.71,-0.01 0.09,25.69,-0.01 0.09,27.66,-0.01 0.10,29.64,-0.02 0.11,31.61,-0.02 0.11,33.59,-0.02 0.12,35.57,-0.02 0.13,37.54,-0.02 0.14,39.52,-0.03 0.14,41.49,-0.03 0.15,43.47,-0.03 0.16,45.45,-0.03 0.16,47.42,-0.04 0.17,49.40,-0.04 0.18,51.37,-0.04 0.19,53.35,-0.05 0.19,55.32,-0.05 0.20,57.30,-0.05 0.21,59.28,-0.06 0.22,61.25,-0.06 0.22,63.23,-0.06 0.23,65.20,-0.07 0.24,67.18,-0.07 0.25,69.16,-0.07 0.25,71.13,-0.08 0.26,73.11,-0.08 0.27,75.08,-0.08 0.28,77.06,-0.09 0.29,79.04,-0.09 0.30,81.01,-0.10 0.30,82.99,-0.10 0.31,84.96,-0.10 0.32,86.94,-0.11 0.33,88.91,-0.11 0.34,90.89,-0.12 0.35,92.87,-0.12 0.36,94.84,-0.13 0.37,96.82,-0.13 0.37,98.79,-0.13 0.38,100.77,-0.14 0.39,102.75,-0.14 0.40,104.72,-0.15 0.41,106.70,-0.15 0.42,108.67,-0.16 0.43,110.65,-0.16 0.44,112.62,-0.16 0.45,114.60,-0.17 0.46,116.58,-0.17 0.47,118.55,-0.18 0.48,120.53,-0.18 0.49,122.50,-0.19 0.50,124.48,-0.19 0.52,126.46,-0.20 0.53,128.43,-0.20 0.54,130.41,-0.21 0.55,132.38,-0.21 0.56,134.36,-0.21 0.57,136.34,-0.22 0.58,138.31,-0.22 0.59,140.29,-0.23 0.61,142.26,-0.23 0.62,144.24,-0.24 0.63,146.21,-0.24 0.64,148.19,-0.25 0.66,150.17,-0.25 0.67,152.14,-0.25 0.68,154.14,-0.26 0.70,156.13,-0.26 0.71,158.12,-0.27 0.72,160.12,-0.27 0.74,162.11,-0.27 0.75,164.10,-0.28 0.76,166.10,-0.28 0.78,168.09,-0.29 0.79,170.08,-0.29 0.81,172.08,-0.29 0.82,174.07,-0.30 0.84,176.06,-0.30 0.85,178.06,-0.31 0.87,180.05,-0.31 0.88,182.04,-0.31 0.90,184.04,-0.32 0.91,186.03,-0.32 0.93,188.02,-0.33 0.95,190.02,-0.33 0.96,192.01,-0.33 0.98,194.00,-0.34 1.00,196.00,-0.34 1.01,197.99,-0.34 1.03,199.98,-0.35 1.05,201.98,-0.35 1.07,203.97,-0.35 1.08,205.96,-0.36 1.10,207.96,-0.36 1.12,209.95,-0.37 1.14,211.94,-0.37 1.16,213.94,-0.37 1.18,215.93,-0.38 1.19,217.92,-0.38 1.21,219.92,-0.38 1.23,221.91,-0.39 1.25,223.90,-0.39 1.27,225.90,-0.39 1.29,227.89,-0.40 1.31,229.88,-0.40 1.34,231.88,-0.40 1.36,233.87,-0.41 1.38,235.86,-0.41 1.40,237.86,-0.41 1.42,239.85,-0.42 1.44,241.84,-0.42 1.46,243.84,-0.42 1.49,245.83,-0.43 1.51,247.82,-0.43 1.53,249.82,-0.44 1.56,251.81,-0.44 1.58,253.80,-0.44 1.60,255.80,-0.45 1.63,257.79,-0.45 1.65,259.78,-0.45 1.68,261.78,-0.46 1.70,263.77,-0.46 1.73,265.76,-0.46 1.75,267.76,-0.47 1.78,269.75,-0.47 1.80,271.74,-0.47 1.83,273.74,-0.48 1.85,275.73,-0.48 1.88,277.72,-0.49 1.91,279.72,-0.49 1.94,281.71,-0.49 1.96,283.70,-0.50 1.99,285.70,-0.50 2.02,287.69,-0.50 2.05,289.68,-0.51 2.08,291.67,-0.51 2.11,293.67,-0.52 2.13,295.66,-0.52 2.16,297.65,-0.52 2.19,299.65,-0.53 2.22,301.64,-0.53 2.26,303.63,-0.53 2.29,305.62,-0.54 2.32,307.62,-0.54 2.35,309.61,-0.55 2.38,311.60,-0.55 2.42,313.60,-0.55 2.45,315.59,-0.56 2.48,317.58,-0.56 2.52,319.57,-0.57 2.55,321.57,-0.57 2.59,323.56,-0.57 2.62,325.55,-0.58 2.66,327.55,-0.58 2.69,329.54,-0.59 2.73,331.53,-0.59 2.77,333.52,-0.59 2.80,335.52,-0.60 2.84,337.51,-0.60 2.88,339.50,-0.60 2.92,341.49,-0.61 2.96,343.49,-0.61 3.00,345.48,-0.62 3.04,347.47,-0.62 3.08,349.47,-0.62 3.12,351.46,-0.63 3.16,353.45,-0.63 3.21,355.44,-0.64 3.25,357.44,-0.64 3.29,359.43,-0.64 3.34,361.42,-0.65 3.38,363.41,-0.65 3.43,365.41,-0.66 3.47,367.40,-0.66 3.52,369.39,-0.66 3.57,371.38,-0.67 3.61,373.38,-0.67 3.66,375.35,-0.67 3.71,377.33,-0.68 3.76,379.31,-0.68 3.81,381.28,-0.68 3.86,383.26,-0.69 3.91,385.24,-0.69 3.96,387.21,-0.70 4.02,389.19,-0.70 4.07,391.17,-0.70 4.12,393.14,-0.71 4.18,395.12,-0.71 4.23,397.10,-0.71 4.29,399.07,-0.72 4.34,401.05,-0.72 4.40,403.03,-0.72 4.46,405.00,-0.73 4.52,406.98,-0.73 4.58,408.96,-0.73 4.64,410.93,-0.74 4.70,412.91,-0.74 4.76,414.89,-0.74 4.82,416.86,-0.75 4.89,418.84,-0.75 4.95,420.82,-0.75 5.02,422.79,-0.76 5.08,424.77,-0.76 5.15,426.74,-0.76 5.22,428.72,-0.77 5.29,430.70,-0.77 5.36,432.67,-0.77 5.43,434.65,-0.77 5.50,436.62,-0.78 5.57,438.60,-0.78 5.64,440.58,-0.78 5.72,442.55,-0.79 5.79,444.53,-0.79 5.87,446.50,-0.79 5.95,448.48,-0.79 6.02,450.46,-0.80 6.10,452.43,-0.80 6.18,454.41,-0.80 6.26,456.38,-0.80 6.35,458.36,-0.81 6.43,460.33,-0.81 6.51,462.31,-0.81 6.60,464.29,-0.81 6.68,466.26,-0.81 6.77,468.24,-0.82 6.86,470.21,-0.82 6.95,472.19,-0.82 7.04,474.16,-0.82 7.13,476.14,-0.82 7.22,478.11,-0.83 7.32,480.09,-0.83 7.41,482.06,-0.83 7.51,484.04,-0.83 7.61,486.01,-0.83 7.71,487.99,-0.83 7.81,489.96,-0.83 7.91,491.94,-0.84 8.01,493.91,-0.84 8.11,495.89,-0.84 8.22,497.86,-0.84 8.32,499.83,-0.84 8.43,501.81,-0.84 8.54,503.78,-0.84 8.65,505.76,-0.84 8.76,507.73,-0.84 8.87,509.71,-0.84 8.98,511.68,-0.85 9.10,513.65,-0.85 9.21,515.59,-0.85 9.33,517.54,-0.85 9.45,519.48,-0.85 9.56,521.42,-0.85 9.68,523.36,-0.85 9.80,525.30,-0.85 9.93,527.24,-0.85 10.05,529.18,-0.85 10.17,531.12,-0.85 10.30,533.06,-0.85 10.43,535.00,-0.85 10.55,536.94,-0.85 10.68,538.88,-0.85 10.81,540.82,-0.85 10.95,542.76,-0.85 11.08,544.70,-0.85 11.21,546.64,-0.84 11.35,548.58,-0.84 11.48,550.52,-0.84 11.62,552.46,-0.84 11.76,554.40,-0.84 11.90,556.34,-0.84 12.04,558.28,-0.84 12.19,560.22,-0.84 12.33,562.16,-0.84 12.48,564.10,-0.84 12.62,566.04,-0.84 12.77,567.98,-0.84 12.92,569.93,-0.84 13.07,571.88,-0.84 13.22,573.83,-0.84 13.38,575.79,-0.83 13.53,577.74,-0.83 13.69,579.69,-0.83 13.85,581.64,-0.83 14.00,583.59,-0.83 14.16,585.54,-0.83 14.32,587.49,-0.83 14.49,589.45,-0.83 14.65,591.40,-0.83 14.81,593.35,-0.83 14.98,595.30,-0.83 15.15,597.25,-0.83 15.31,599.20,-0.83 15.48,601.15,-0.83 15.65,603.10,-0.83 15.82,605.05,-0.83 15.99,607.00,-0.83 16.17,608.95,-0.83 16.34,610.90,-0.83 16.52,612.85,-0.83 16.69,614.80,-0.83 16.87,616.75,-0.83 17.05,618.70,-0.83 17.23,620.65,-0.83 17.41,622.60,-0.83 17.59,624.55,-0.83 17.77,626.50,-0.83 17.96,628.45,-0.83 18.14,630.40,-0.83 18.33,632.35,-0.83 18.52,634.30,-0.83 18.70,636.24,-0.83 18.89,638.19,-0.83 19.08,640.14,-0.84 19.27,642.09,-0.84 19.46,644.04,-0.84 19.66,645.99,-0.84 19.85,647.94,-0.84 20.05,649.88,-0.85 20.24,651.83,-0.85 20.44,653.78,-0.85 20.64,655.73,-0.85 20.83,657.67,-0.86 21.03,659.62,-0.86 21.24,661.61,-0.86 21.44,663.59,-0.87 21.65,665.57,-0.87 21.85,667.56,-0.87 22.06,669.54,-0.88 22.27,671.52,-0.88 22.48,673.51,-0.88 22.69,675.49,-0.89 22.90,677.47,-0.89 23.12,679.46,-0.90 23.33,681.44,-0.90 23.54,683.42,-0.91 23.76,685.40,-0.91 23.98,687.39,-0.92 24.19,689.37,-0.92 24.41,691.35,-0.93 24.63,693.33,-0.93 24.85,695.32,-0.94 25.07,697.30,-0.94 25.29,699.28,-0.95 25.51,701.26,-0.95 25.74,703.24,-0.96 25.96,705.23,-0.97 26.19,707.21,-0.97 26.41,709.19,-0.98 26.64,711.17,-0.98 26.87,713.15,-0.99 27.10,715.13,-1.00 27.33,717.11,-1.00 27.56,719.09,-1.01 27.79,721.07,-1.01 28.02,723.06,-1.02 28.26,725.04,-1.03 28.49,727.02,-1.03 28.72,729.00,-1.04 28.96,730.98,-1.04 29.20,732.96,-1.05 29.43,734.94,-1.05 29.67,736.92,-1.06 29.91,738.90,-1.07 30.15,740.88,-1.07 30.39,742.86,-1.08 30.63,744.84,-1.08 30.88,746.82,-1.09 31.12,748.80,-1.09 31.36,750.77,-1.10 31.61,752.75,-1.10 31.85,754.73,-1.11 32.10,756.71,-1.11 32.35,758.69,-1.11 32.60,760.67,-1.12 32.85,762.65,-1.12 33.10,764.63,-1.12 33.35,766.61,-1.13 33.60,768.58,-1.13 33.85,770.56,-1.13 34.10,772.54,-1.14 34.36,774.52,-1.14 34.61,776.50,-1.14 34.87,778.47,-1.14 35.12,780.45,-1.14 35.38,782.43,-1.14 35.64,784.41,-1.14 35.90,786.38,-1.15 36.16,788.36,-1.15 36.42,790.34,-1.14 36.68,792.32,-1.14 36.94,794.29,-1.14 37.20,796.27,-1.14 37.46,798.24,-1.14 37.73,800.22,-1.14 37.99,802.19,-1.14 38.26,804.17,-1.13 38.52,806.14,-1.13 38.79,808.12,-1.13 39.06,810.09,-1.12 39.33,812.07,-1.12 39.60,814.04,-1.11 39.87,816.02,-1.11 40.14,817.99,-1.10 40.41,819.96,-1.10 40.68,821.94,-1.09 40.96,823.91,-1.08 41.23,825.89,-1.07 41.51,827.86,-1.07 41.78,829.83,-1.06 42.06,831.81,-1.05 42.34,833.78,-1.04 42.62,835.75,-1.03 42.90,837.73,-1.02 43.18,839.70,-1.01 43.46,841.67,-1.00 43.74,843.65,-0.99 44.03,845.62,-0.97 44.31,847.59,-0.96 44.60,849.56,-0.95 44.88,851.54,-0.93 45.17,853.51,-0.92 45.46,855.48,-0.90 45.75,857.45,-0.88 46.04,859.42,-0.87 46.33,861.39,-0.85 46.62,863.37,-0.83 46.92,865.34,-0.81 47.21,867.32,-0.79 47.51,869.29,-0.77 47.80,871.27,-0.75 48.10,873.24,-0.73 48.40,875.21,-0.70 48.70,877.19,-0.68 49.00,879.16,-0.66 49.31,881.14,-0.63 49.61,883.11,-0.60 49.92,885.08,-0.57 50.22,887.06,-0.55 50.53,889.03,-0.52 50.84,891.00,-0.48 51.15,892.97,-0.45 51.46,894.95,-0.42 51.78,896.92,-0.38 52.10,898.89,-0.35 52.41,900.86,-0.31 52.73,902.83,-0.27 53.05,904.80,-0.24 53.38,906.77,-0.20 53.69,908.70,-0.15 54.01,910.62,-0.11 54.33,912.55,-0.07 54.66,914.47,-0.03 54.98,916.39,0.02 55.31,918.32,0.07 55.63,920.24,0.11 55.96,922.16,0.16 56.29,924.08,0.21 56.63,926.01,0.26 56.96,927.93,0.31 57.29,929.85,0.36 57.63,931.77,0.42 57.97,933.69,0.47 58.31,935.61,0.53 58.65,937.53,0.58 59.00,939.45,0.64 59.34,941.37,0.69 59.69,943.29,0.75 60.04,945.21,0.81 60.39,947.13,0.86 60.74,949.05,0.92 61.10,950.98,0.98 61.46,952.90,1.03 61.81,954.83,1.09 62.17,956.75,1.14 62.53,958.67,1.20 62.89,960.60,1.25 63.26,962.52,1.31 63.62,964.44,1.36 63.98,966.37,1.41 64.35,968.29,1.47 64.72,970.21,1.52 65.08,972.13,1.56 65.45,974.05,1.61 65.82,975.98,1.66 66.19,977.90,1.71 66.56,979.82,1.75 66.93,981.74,1.79 67.30,983.66,1.83 67.67,985.58,1.87 68.04,987.51,1.91 68.41,989.43,1.95 68.78,991.35,1.99 69.16,993.30,2.02 69.53,995.25,2.05 69.91,997.20,2.08 70.29,999.15,2.11 70.66,1001.10,2.14 71.04,1003.05,2.17 71.42,1005.00,2.19 71.79,1006.95,2.22 72.17,1008.90,2.24 72.54,1010.85,2.26 72.92,1012.80,2.28 73.29,1014.75,2.30 73.67,1016.70,2.31 74.05,1018.65,2.33 74.42,1020.60,2.34 74.80,1022.55,2.35 75.17,1024.50,2.36 75.55,1026.45,2.37 75.92,1028.40,2.38 76.30,1030.35,2.38 76.67,1032.30,2.39 77.05,1034.25,2.39 77.42,1036.20,2.39 77.79,1038.15,2.39 78.17,1040.10,2.39 78.54,1042.05,2.39 78.91,1044.00,2.39 79.29,1045.95,2.38 79.66,1047.90,2.38 80.03,1049.85,2.37 80.41,1051.80,2.37 80.78,1053.75,2.36 81.15,1055.71,2.35 81.52,1057.66,2.34 81.89,1059.61,2.32 82.27,1061.56,2.31 82.64,1063.51,2.30 83.01,1065.46,2.28 83.38,1067.42,2.27 83.75,1069.37,2.25 84.12,1071.32,2.23 84.49,1073.27,2.21 84.86,1075.22,2.20 85.23,1077.18,2.18 85.60,1079.13,2.15 85.97,1081.08,2.13 86.34,1083.03,2.11 86.71,1084.99,2.09 87.08,1086.94,2.06 87.44,1088.89,2.04 87.81,1090.84,2.01 88.18,1092.79,1.99 88.55,1094.75,1.96 88.92,1096.70,1.94 89.29,1098.65,1.91 89.65,1100.60,1.88 90.02,1102.56,1.85 90.39,1104.51,1.82 90.76,1106.46,1.79 91.13,1108.41,1.76 91.49,1110.37,1.73 91.86,1112.32,1.70 92.23,1114.27,1.67 92.59,1116.22,1.63 92.96,1118.18,1.60 93.33,1120.13,1.57 93.69,1122.08,1.53 94.06,1124.04,1.50 94.43,1125.99,1.46 94.80,1127.94,1.43 95.16,1129.89,1.39 95.53,1131.85,1.36 95.89,1133.80,1.32 96.26,1135.75,1.29 96.63,1137.70,1.25 96.99,1139.66,1.21 97.36,1141.61,1.18 97.73,1143.56,1.14 98.09,1145.52,1.10 98.46,1147.47,1.06 98.83,1149.42,1.02 99.19,1151.37,0.98 99.56,1153.33,0.95 99.93,1155.28,0.91 100.29,1157.23,0.87 100.66,1159.18,0.83 101.02,1161.14,0.79 101.39,1163.09,0.75 101.76,1165.04,0.71 102.12,1167.00,0.67 102.49,1168.95,0.63 102.86,1170.90,0.59 103.22,1172.85,0.55 103.59,1174.81,0.51 103.96,1176.75,0.46 104.32,1178.70,0.42 104.69,1180.64,0.38 105.05,1182.59,0.34 105.42,1184.53,0.30 105.78,1186.48,0.26 106.15,1188.42,0.22 106.52,1190.37,0.18 106.88,1192.31,0.13 107.25,1194.26,0.09 107.61,1196.20,0.05 107.98,1198.14,0.01 108.35,1200.09,-0.03 108.71,1202.03,-0.07 109.08,1203.98,-0.11 109.45,1205.92,-0.16 109.81,1207.87,-0.20 110.18,1209.81,-0.24 110.55,1211.76,-0.28 110.91,1213.70,-0.32 111.28,1215.65,-0.36 111.65,1217.59,-0.41 112.01,1219.54,-0.45 112.38,1221.48,-0.49 112.75,1223.43,-0.53 113.12,1225.37,-0.57 113.48,1227.31,-0.61 113.85,1229.26,-0.65 114.22,1231.20,-0.69 114.59,1233.15,-0.74 114.95,1235.09,-0.78 115.32,1237.04,-0.82 115.69,1238.98,-0.86 116.06,1240.93,-0.90 116.43,1242.87,-0.94 116.79,1244.81,-0.98 117.16,1246.76,-1.02 117.53,1248.70,-1.06 117.90,1250.65,-1.10 118.27,1252.59,-1.14 118.64,1254.54,-1.18 119.01,1256.48,-1.22 119.37,1258.42,-1.26 119.74,1260.37,-1.29 120.11,1262.31,-1.33 120.48,1264.26,-1.37 120.85,1266.20,-1.41 121.22,1268.15,-1.45 121.59,1270.09,-1.49 121.96,1272.03,-1.52 122.33,1273.98,-1.56 122.70,1275.92,-1.60 123.07,1277.87,-1.64 123.44,1279.81,-1.67 123.81,1281.75,-1.71 124.18,1283.70,-1.74 124.55,1285.64,-1.78 124.92,1287.59,-1.82 125.29,1289.53,-1.85 125.67,1291.47,-1.89 126.04,1293.42,-1.92 126.41,1295.36,-1.96 126.78,1297.30,-1.99 127.15,1299.25,-2.02 127.52,1301.19,-2.06 127.89,1303.14,-2.09 128.27,1305.08,-2.12 128.64,1307.02,-2.15 129.01,1308.97,-2.19 129.38,1310.91,-2.22 129.75,1312.85,-2.25 130.13,1314.80,-2.28 130.50,1316.74,-2.31 130.87,1318.68,-2.34 131.25,1320.63,-2.37 131.62,1322.57,-2.40 131.99,1324.52,-2.43 132.37,1326.46,-2.46 132.74,1328.40,-2.48 133.11,1330.35,-2.51 133.49,1332.29,-2.54 133.86,1334.23,-2.57 134.23,1336.18,-2.59 134.61,1338.12,-2.62 134.98,1340.06,-2.64 135.36,1342.00,-2.67 135.73,1343.95,-2.69 136.11,1345.89,-2.72 136.48,1347.83,-2.74 136.86,1349.78,-2.76 137.23,1351.68,-2.79 137.59,1353.58,-2.81 137.96,1355.48,-2.83 138.33,1357.39,-2.85 138.70,1359.29,-2.87 139.07,1361.19,-2.89 139.43,1363.09,-2.91 139.80,1364.99,-2.92 140.17,1366.90,-2.94 140.54,1368.80,-2.96 140.91,1370.70,-2.97 141.28,1372.60,-2.99 141.65,1374.50,-3.00 142.02,1376.41,-3.01 142.39,1378.31,-3.03 142.76,1380.21,-3.04 143.13,1382.11,-3.05 143.50,1384.01,-3.05 143.87,1385.91,-3.06 144.24,1387.81,-3.07 144.61,1389.72,-3.07 144.99,1391.62,-3.08 145.36,1393.52,-3.08 145.73,1395.42,-3.09 146.10,1397.32,-3.09 146.47,1399.22,-3.10 146.85,1401.12,-3.10 147.22,1403.02,-3.10 147.59,1404.93,-3.10 147.97,1406.83,-3.11 148.35,1408.79,-3.11 148.74,1410.75,-3.11 149.13,1412.71,-3.11 149.51,1414.67,-3.11 149.90,1416.63,-3.10 150.29,1418.59,-3.10 150.68,1420.55,-3.08 151.06,1422.51,-3.06 151.45,1424.47,-3.04 151.84,1426.43,-3.00 152.23,1428.39,-2.96 152.62,1430.35,-2.92 153.00,1432.31,-2.87 153.39,1434.26,-2.82 153.78,1436.22,-2.78 154.17,1438.18,-2.74 154.56,1440.14,-2.72 154.95,1442.10,-2.71 156.89,1451.91,-2.71">