<?xml version="1.0" encoding="UTF-8"?>
<routes>
  <vType accel="3.0" decel="6.0" id="CarA" length="5.0" minGap="2.5" maxSpeed="50.0" sigma="0.5" />
  <vType accel="2.0" decel="6.0" id="CarB" length="7.5" minGap="2.5" maxSpeed="50.0" sigma="0.5" />
  <vType accel="1.0" decel="5.0" id="CarC" length="5.0" minGap="2.5" maxSpeed="40.0" sigma="0.5" />
  <vType accel="1.0" decel="5.0" id="CarD" length="7.5" minGap="2.5" maxSpeed="30.0" sigma="0.5" />
  <route id="route01" departLane="free" edges="-2.0.00 3.0.00"/>
  <route id="route02" departLane="free" edges="-3.0.00 -1.0.00"/>
  <route id="route03" departLane="free" edges="-3.0.00 2.0.00"/>

   <vehicle depart="0" id="veh0" route="route01" type="CarA" color="1,0,0" />
   <vehicle depart="10" id="veh1" route="route02" type="CarA" color="1,0,0" />
   <vehicle depart="20" id="veh2" route="route03" type="CarA" color="1,0,0" />






</routes>