<?xml version="1.0" encoding="UTF-8"?>

<!-- generated on Thu May 28 13:41:30 2020 by SUMO netconvert Version 0.32.0
<?xml version="1.0" encoding="UTF-8"?>

<configuration xmlns:xsi="http://www.w3.org/2001/XMLSchema-instance" xsi:noNamespaceSchemaLocation="http://sumo.dlr.de/xsd/netconvertConfiguration.xsd">

    <input>
        <opendrive-files value="esmini/resources/xodr/fabriksgatan.xodr"/>
    </input>

    <output>
        <output-file value="fabriksgatan.net.xml"/>
    </output>

    <tls_building>
        <tls.left-green.time value="0"/>
    </tls_building>

    <processing>
        <rectangular-lane-cut value="true"/>
    </processing>

</configuration>
-->

<net version="0.27" rectangularLaneCut="true" xmlns:xsi="http://www.w3.org/2001/XMLSchema-instance" xsi:noNamespaceSchemaLocation="http://sumo.dlr.de/xsd/net_file.xsd">

    <location netOffset="95.11,101.83" convBoundary="0.00,0.00,144.84,405.22" origBoundary="-95.11,-101.83,49.73,303.39" projParameter="!"/>

    <type id="OffRamp" priority="1" speed="22.22" allow="private emergency authority army vip passenger hov taxi bus coach delivery truck trailer motorcycle evehicle custom1 custom2" width="3.65"/>
    <type id="OnRamp" priority="1" speed="22.22" allow="private emergency authority army vip passenger hov taxi bus coach delivery truck trailer motorcycle evehicle custom1 custom2" width="3.65"/>
    <type id="bidirectional" priority="1" speed="1.39" disallow="tram rail_urban rail rail_electric pedestrian ship" width="3.65"/>
    <type id="border" priority="0" speed="1.39" disallow="all" discard="1" width="0.10"/>
    <type id="driving" priority="1" speed="13.89" disallow="tram rail_urban rail rail_electric pedestrian ship" width="3.65"/>
    <type id="entry" priority="1" speed="22.22" disallow="tram rail_urban rail rail_electric pedestrian ship" width="3.65"/>
    <type id="exit" priority="1" speed="22.22" disallow="tram rail_urban rail rail_electric pedestrian ship" width="3.65"/>
    <type id="median" priority="0" speed="1.39" disallow="all" discard="1" width="0.10"/>
    <type id="mwyEntry" priority="1" speed="22.22" allow="private emergency authority army vip passenger hov taxi bus coach delivery truck trailer motorcycle evehicle custom1 custom2" width="3.65"/>
    <type id="mwyExit" priority="1" speed="22.22" allow="private emergency authority army vip passenger hov taxi bus coach delivery truck trailer motorcycle evehicle custom1 custom2" width="3.65"/>
    <type id="none" priority="0" speed="1.39" disallow="all" discard="1" width="1.00"/>
    <type id="parking" priority="1" speed="1.39" disallow="tram rail_urban rail rail_electric pedestrian ship" width="2.50"/>
    <type id="rail" priority="3" speed="33.33" allow="rail_urban rail rail_electric" width="3.65"/>
    <type id="restricted" priority="0" speed="13.89" disallow="all" width="3.65"/>
    <type id="roadWorks" priority="0" speed="1.39" allow="authority" width="3.65"/>
    <type id="shoulder" priority="0" speed="1.39" disallow="all" discard="1" width="1.00"/>
    <type id="special1" priority="1" speed="22.22" allow="custom1" discard="1" width="3.65"/>
    <type id="special2" priority="1" speed="22.22" allow="custom2" discard="1" width="3.65"/>
    <type id="special3" priority="1" speed="22.22" allow="custom1 custom2" discard="1" width="3.65"/>
    <type id="stop" priority="1" speed="13.89" disallow="tram rail_urban rail rail_electric pedestrian ship" width="3.65"/>
    <type id="tram" priority="2" speed="13.89" allow="tram" width="3.65"/>

    <edge id=":0.end_0" function="internal">
        <lane id=":0.end_0_0" index="0" disallow="tram rail_urban rail rail_electric pedestrian ship" speed="13.89" length="5.26" width="3.50" shape="139.57,-0.13 140.57,-1.41 141.50,-1.79 142.37,-1.28 143.16,0.13"/>
    </edge>
    <edge id=":1.end_0" function="internal">
        <lane id=":1.end_0_0" index="0" disallow="tram rail_urban rail rail_electric pedestrian ship" speed="13.89" length="5.26" width="3.50" shape="145.19,102.06 146.34,103.20 146.61,104.17 146.00,104.97 144.50,105.59"/>
    </edge>
    <edge id=":2.begin_0" function="internal">
        <lane id=":2.begin_0_0" index="0" disallow="tram rail_urban rail rail_electric pedestrian ship" speed="13.89" length="5.26" width="3.50" shape="62.36,405.59 61.21,406.73 60.24,406.99 59.45,406.36 58.84,404.86"/>
    </edge>
    <edge id=":3.begin_0" function="internal">
        <lane id=":3.begin_0_0" index="0" disallow="tram rail_urban rail rail_electric pedestrian ship" speed="13.89" length="5.26" width="3.50" shape="-0.26,83.18 -1.47,82.09 -1.78,81.13 -1.20,80.31 0.26,79.61"/>
    </edge>
    <edge id=":4_0" function="internal">
        <lane id=":4_0_0" index="0" disallow="tram rail_urban rail rail_electric pedestrian ship" speed="13.89" length="5.35" width="3.50" shape="125.42,101.86 123.97,101.80 122.84,102.22 122.05,103.13 121.58,104.54"/>
    </edge>
    <edge id=":4_1" function="internal">
        <lane id=":4_1_0" index="0" disallow="tram rail_urban rail rail_electric pedestrian ship" speed="13.89" length="10.21" width="3.50" shape="125.42,101.86 115.36,100.15"/>
    </edge>
    <edge id=":4_2" function="internal">
        <lane id=":4_2_0" index="0" disallow="tram rail_urban rail rail_electric pedestrian ship" speed="13.89" length="11.16" width="3.50" shape="125.42,101.86 122.52,100.86 120.66,99.16 119.84,96.79 120.06,93.73"/>
    </edge>
    <edge id=":4_3" function="internal">
        <lane id=":4_3_0" index="0" disallow="tram rail_urban rail rail_electric pedestrian ship" speed="13.89" length="5.27" width="3.50" shape="123.58,94.49 123.48,95.93 123.86,97.06 124.74,97.86 126.11,98.33"/>
    </edge>
    <edge id=":4_4" function="internal">
        <lane id=":4_4_0" index="0" disallow="tram rail_urban rail rail_electric pedestrian ship" speed="13.89" length="10.25" width="3.50" shape="123.58,94.49 121.58,104.54"/>
    </edge>
    <edge id=":4_5" function="internal">
        <lane id=":4_5_0" index="0" disallow="tram rail_urban rail rail_electric pedestrian ship" speed="13.89" length="5.59" width="3.50" shape="123.58,94.49 122.53,97.34 120.80,99.23"/>
    </edge>
    <edge id=":4_12" function="internal">
        <lane id=":4_12_0" index="0" speed="13.89" length="5.62" width="3.50" shape="120.80,99.23 118.41,100.17 115.36,100.15"/>
    </edge>
    <edge id=":4_6" function="internal">
        <lane id=":4_6_0" index="0" disallow="tram rail_urban rail rail_electric pedestrian ship" speed="13.89" length="5.69" width="3.50" shape="115.88,96.58 117.44,96.60 118.65,96.12 119.53,95.17 120.06,93.73"/>
    </edge>
    <edge id=":4_7" function="internal">
        <lane id=":4_7_0" index="0" disallow="tram rail_urban rail rail_electric pedestrian ship" speed="13.89" length="10.38" width="3.50" shape="115.88,96.58 126.11,98.33"/>
    </edge>
    <edge id=":4_8" function="internal">
        <lane id=":4_8_0" index="0" disallow="tram rail_urban rail rail_electric pedestrian ship" speed="13.89" length="11.25" width="3.50" shape="115.88,96.58 118.85,97.47 120.79,99.08 121.70,101.44 121.58,104.54"/>
    </edge>
    <edge id=":4_9" function="internal">
        <lane id=":4_9_0" index="0" disallow="tram rail_urban rail rail_electric pedestrian ship" speed="13.89" length="5.29" width="3.50" shape="118.04,103.89 118.09,102.43 117.67,101.32 116.75,100.56 115.36,100.15"/>
    </edge>
    <edge id=":4_10" function="internal">
        <lane id=":4_10_0" index="0" disallow="tram rail_urban rail rail_electric pedestrian ship" speed="13.89" length="10.36" width="3.50" shape="118.04,103.89 120.06,93.73"/>
    </edge>
    <edge id=":4_11" function="internal">
        <lane id=":4_11_0" index="0" disallow="tram rail_urban rail rail_electric pedestrian ship" speed="13.89" length="5.85" width="3.50" shape="118.04,103.89 119.02,100.96 120.69,99.06 120.90,98.98"/>
    </edge>
    <edge id=":4_13" function="internal">
        <lane id=":4_13_0" index="0" speed="13.89" length="5.36" width="3.50" shape="120.90,98.98 123.05,98.18 126.11,98.33"/>
    </edge>

    <edge id="-0.0.00" from="4" to="0.end" priority="1" type="driving" shape="120.73,99.14 122.77,89.73 123.19,87.82 123.61,85.91 124.04,84.00 124.47,82.09 124.91,80.18 125.34,78.28 125.79,76.37 126.23,74.46 126.68,72.56 127.12,70.65 127.57,68.75 128.02,66.84 128.47,64.94 128.92,63.03 129.37,61.13 129.82,59.22 130.27,57.32 130.72,55.41 131.17,53.51 131.62,51.60 132.06,49.70 132.50,47.79 132.94,45.88 133.37,43.98 133.81,42.07 134.23,40.16 134.66,38.25 135.08,36.34 135.49,34.42 135.90,32.51 136.30,30.60 136.70,28.68 137.09,26.76 137.48,24.85 137.85,22.93 138.22,21.00 138.59,19.08 138.94,17.16 139.29,15.23 139.62,13.30 139.95,11.37 140.27,9.44 140.58,7.50 140.88,5.57 141.09,3.72 141.23,1.86 141.37,0.00">
        <lane id="-0.0.00_0" index="0" disallow="tram rail_urban rail rail_electric pedestrian ship" speed="13.89" length="95.93" width="3.50" shape="120.06,93.73 121.01,89.35 121.43,87.43 121.85,85.52 122.28,83.60 122.72,81.69 123.15,79.78 123.59,77.87 124.03,75.96 124.48,74.05 124.92,72.15 125.37,70.24 125.82,68.33 126.27,66.43 126.72,64.52 127.17,62.62 127.62,60.71 128.07,58.81 128.52,56.90 128.97,55.00 129.42,53.10 129.86,51.19 130.31,49.29 130.75,47.39 131.19,45.48 131.62,43.58 132.05,41.67 132.48,39.77 132.90,37.86 133.32,35.95 133.73,34.05 134.14,32.14 134.54,30.23 134.94,28.32 135.33,26.41 135.71,24.49 136.09,22.58 136.45,20.67 136.82,18.75 137.17,16.83 137.51,14.91 137.85,12.99 138.17,11.07 138.49,9.15 138.80,7.22 139.09,5.32 139.30,3.54 139.44,1.72 139.57,-0.13"/>
    </edge>
    <edge id="-1.0.00" from="4" to="1.end" priority="1" type="driving" shape="120.65,99.10 130.09,100.94 131.94,101.30 133.78,101.66 135.62,102.02 137.47,102.39 139.31,102.75 141.16,103.11 143.00,103.47 144.84,103.83">
        <lane id="-1.0.00_0" index="0" disallow="tram rail_urban rail rail_electric pedestrian ship" speed="13.89" length="19.44" width="3.50" shape="126.11,98.33 130.44,99.18 132.28,99.54 134.13,99.90 135.97,100.26 137.81,100.62 139.66,100.98 141.50,101.34 143.34,101.70 145.19,102.06"/>
    </edge>
    <edge id="-2.0.00" from="2.begin" to="4" priority="1" type="driving" shape="60.60,405.22 61.00,403.31 61.40,401.40 61.79,399.49 62.19,397.58 62.59,395.67 62.99,393.76 63.38,391.84 63.78,389.93 64.18,388.02 64.58,386.11 64.97,384.20 65.37,382.29 65.77,380.38 66.17,378.46 66.56,376.55 66.96,374.64 67.36,372.73 67.76,370.82 68.15,368.91 68.55,367.00 68.95,365.08 69.35,363.17 69.74,361.26 70.14,359.35 70.54,357.44 70.93,355.53 71.34,353.58 71.75,351.64 72.15,349.69 72.56,347.74 72.97,345.80 73.37,343.85 73.78,341.91 74.19,339.96 74.60,338.02 75.01,336.07 75.42,334.13 75.83,332.18 76.24,330.24 76.65,328.29 77.06,326.34 77.47,324.40 77.88,322.45 78.29,320.51 78.70,318.56 79.11,316.62 79.52,314.67 79.92,312.73 80.33,310.78 80.74,308.84 81.15,306.89 81.55,304.94 81.96,303.00 82.36,301.05 82.76,299.11 83.17,297.16 83.57,295.21 83.97,293.26 84.37,291.32 84.77,289.37 85.17,287.42 85.56,285.47 85.96,283.53 86.35,281.58 86.74,279.63 87.14,277.68 87.52,275.73 87.91,273.79 88.30,271.85 88.68,269.91 89.06,267.97 89.45,266.03 89.83,264.09 90.21,262.15 90.59,260.21 90.97,258.27 91.35,256.32 91.72,254.38 92.10,252.44 92.48,250.50 92.85,248.56 93.23,246.62 93.60,244.67 93.97,242.73 94.35,240.79 94.72,238.85 95.09,236.90 95.46,234.96 95.83,233.02 96.20,231.08 96.57,229.13 96.94,227.19 97.31,225.25 97.67,223.30 98.04,221.36 98.41,219.42 98.78,217.47 99.14,215.53 99.51,213.59 99.87,211.64 100.24,209.70 100.61,207.75 100.97,205.81 101.34,203.87 101.70,201.92 102.07,199.98 102.43,198.04 102.80,196.09 103.16,194.15 103.52,192.20 103.89,190.26 104.25,188.32 104.62,186.37 104.98,184.43 105.35,182.48 105.71,180.54 106.08,178.60 106.44,176.65 106.80,174.71 107.17,172.77 107.53,170.83 107.89,168.89 108.25,166.95 108.61,165.01 108.98,163.07 109.34,161.13 109.69,159.19 110.05,157.25 110.41,155.31 110.77,153.36 111.13,151.42 111.49,149.48 111.84,147.54 112.20,145.60 112.56,143.66 112.91,141.72 113.27,139.77 113.63,137.83 113.98,135.89 114.34,133.95 114.70,132.01 115.05,130.07 115.41,128.12 115.77,126.18 116.12,124.24 116.48,122.30 116.83,120.36 117.19,118.42 117.55,116.48 117.90,114.53 118.26,112.59 118.62,110.65 118.98,108.71 120.74,99.14">
        <lane id="-2.0.00_0" index="0" disallow="tram rail_urban rail rail_electric pedestrian ship" speed="13.89" length="306.75" width="3.50" shape="58.84,404.86 59.24,402.95 59.63,401.03 60.03,399.12 60.43,397.21 60.83,395.30 61.22,393.39 61.62,391.48 62.02,389.57 62.42,387.66 62.81,385.74 63.21,383.83 63.61,381.92 64.01,380.01 64.40,378.10 64.80,376.19 65.20,374.28 65.60,372.36 65.99,370.45 66.39,368.54 66.79,366.63 67.19,364.72 67.58,362.81 67.98,360.90 68.38,358.98 68.77,357.07 69.17,355.16 69.58,353.21 69.98,351.27 70.39,349.32 70.80,347.37 71.20,345.43 71.61,343.48 72.02,341.54 72.43,339.59 72.84,337.65 73.25,335.70 73.66,333.75 74.07,331.81 74.48,329.86 74.89,327.92 75.30,325.97 75.71,324.03 76.12,322.08 76.53,320.14 76.94,318.19 77.35,316.25 77.75,314.30 78.16,312.36 78.57,310.41 78.98,308.47 79.38,306.52 79.79,304.58 80.19,302.63 80.60,300.69 81.00,298.74 81.40,296.79 81.81,294.85 82.21,292.90 82.61,290.96 83.01,289.01 83.40,287.06 83.80,285.12 84.19,283.17 84.59,281.22 84.98,279.27 85.37,277.33 85.76,275.38 86.15,273.44 86.53,271.50 86.91,269.56 87.30,267.62 87.68,265.68 88.06,263.74 88.44,261.80 88.82,259.86 89.20,257.92 89.58,255.98 89.96,254.04 90.33,252.10 90.71,250.16 91.08,248.22 91.46,246.28 91.83,244.33 92.20,242.39 92.58,240.45 92.95,238.51 93.32,236.57 93.69,234.62 94.06,232.68 94.43,230.74 94.80,228.80 95.17,226.85 95.54,224.91 95.91,222.97 96.27,221.03 96.64,219.08 97.01,217.14 97.37,215.20 97.74,213.25 98.11,211.31 98.47,209.37 98.84,207.42 99.20,205.48 99.57,203.53 99.93,201.59 100.30,199.65 100.66,197.70 101.03,195.76 101.39,193.82 101.76,191.87 102.12,189.93 102.48,187.98 102.85,186.04 103.21,184.10 103.58,182.15 103.94,180.21 104.31,178.26 104.67,176.32 105.04,174.38 105.40,172.44 105.76,170.50 106.12,168.56 106.48,166.62 106.84,164.68 107.21,162.74 107.57,160.80 107.92,158.86 108.28,156.92 108.64,154.98 109.00,153.04 109.36,151.10 109.72,149.16 110.07,147.21 110.43,145.27 110.79,143.33 111.14,141.39 111.50,139.45 111.86,137.51 112.21,135.57 112.57,133.62 112.93,131.68 113.28,129.74 113.64,127.80 113.99,125.86 114.35,123.92 114.71,121.98 115.06,120.03 115.42,118.09 115.78,116.15 116.13,114.21 116.49,112.27 116.85,110.33 117.21,108.38 118.04,103.89"/>
    </edge>
    <edge id="-3.0.00" from="3.begin" to="4" priority="1" type="driving" shape="0.00,81.40 1.95,81.68 3.90,81.97 5.85,82.25 7.80,82.54 9.75,82.83 11.69,83.11 13.64,83.40 15.59,83.68 17.54,83.97 19.49,84.26 21.44,84.54 23.39,84.83 25.34,85.11 27.29,85.40 29.24,85.69 31.19,85.97 33.13,86.26 35.08,86.54 37.03,86.83 38.98,87.12 40.93,87.40 42.88,87.69 44.83,87.98 46.78,88.26 48.73,88.55 50.68,88.83 52.63,89.12 54.58,89.41 56.52,89.69 58.47,89.98 60.42,90.26 62.37,90.55 64.32,90.84 66.27,91.12 68.22,91.41 70.17,91.69 72.12,91.98 74.07,92.27 76.02,92.55 77.96,92.84 79.91,93.12 81.86,93.41 83.81,93.70 85.76,93.98 87.71,94.27 89.66,94.55 91.61,94.84 93.56,95.13 95.51,95.41 97.46,95.70 99.40,95.99 101.35,96.27 103.30,96.56 105.25,96.84 107.20,97.13 109.15,97.42 111.10,97.70 120.65,99.10">
        <lane id="-3.0.00_0" index="0" disallow="tram rail_urban rail rail_electric pedestrian ship" speed="13.89" length="116.86" width="3.50" shape="0.26,79.61 2.21,79.90 4.16,80.19 6.11,80.47 8.06,80.76 10.01,81.05 11.96,81.33 13.91,81.62 15.85,81.90 17.80,82.19 19.75,82.48 21.70,82.76 23.65,83.05 25.60,83.33 27.55,83.62 29.50,83.91 31.45,84.19 33.40,84.48 35.35,84.76 37.29,85.05 39.24,85.34 41.19,85.62 43.14,85.91 45.09,86.19 47.04,86.48 48.99,86.77 50.94,87.05 52.89,87.34 54.84,87.62 56.79,87.91 58.73,88.20 60.68,88.48 62.63,88.77 64.58,89.06 66.53,89.34 68.48,89.63 70.43,89.91 72.38,90.20 74.33,90.49 76.28,90.77 78.23,91.06 80.17,91.34 82.12,91.63 84.07,91.92 86.02,92.20 87.97,92.49 89.92,92.77 91.87,93.06 93.82,93.35 95.77,93.63 97.72,93.92 99.67,94.20 101.62,94.49 103.56,94.78 105.51,95.06 107.46,95.35 109.41,95.63 111.36,95.92 115.88,96.58"/>
    </edge>
    <edge id="0.0.00" from="0.end" to="4" priority="1" type="driving" shape="141.37,0.00 141.23,1.86 141.09,3.72 140.88,5.57 140.58,7.50 140.27,9.44 139.95,11.37 139.62,13.30 139.29,15.23 138.94,17.16 138.59,19.08 138.22,21.00 137.85,22.93 137.48,24.85 137.09,26.76 136.70,28.68 136.30,30.60 135.90,32.51 135.49,34.42 135.08,36.34 134.66,38.25 134.23,40.16 133.81,42.07 133.37,43.98 132.94,45.88 132.50,47.79 132.06,49.70 131.62,51.60 131.17,53.51 130.72,55.41 130.27,57.32 129.82,59.22 129.37,61.13 128.92,63.03 128.47,64.94 128.02,66.84 127.57,68.75 127.12,70.65 126.68,72.56 126.23,74.46 125.79,76.37 125.34,78.28 124.91,80.18 124.47,82.09 124.04,84.00 123.61,85.91 123.19,87.82 122.77,89.73 120.73,99.14">
        <lane id="0.0.00_0" index="0" disallow="tram rail_urban rail rail_electric pedestrian ship" speed="13.89" length="96.43" width="3.50" shape="143.16,0.13 143.03,1.99 142.88,3.89 142.66,5.81 142.36,7.78 142.05,9.73 141.73,11.67 141.40,13.61 141.06,15.54 140.71,17.48 140.35,19.41 139.99,21.34 139.62,23.27 139.24,25.20 138.86,27.12 138.46,29.04 138.07,30.96 137.66,32.88 137.25,34.80 136.84,36.72 136.42,38.63 135.99,40.55 135.56,42.46 135.13,44.37 134.69,46.28 134.26,48.19 133.81,50.10 133.37,52.01 132.92,53.92 132.48,55.83 132.03,57.73 131.58,59.64 131.13,61.54 130.67,63.45 130.22,65.35 129.77,67.26 129.32,69.16 128.88,71.06 128.43,72.97 127.98,74.87 127.54,76.78 127.10,78.68 126.66,80.58 126.23,82.49 125.80,84.40 125.37,86.30 124.95,88.21 124.53,90.12 123.58,94.49"/>
    </edge>
    <edge id="1.0.00" from="1.end" to="4" priority="1" type="driving" shape="144.84,103.83 143.00,103.47 141.16,103.11 139.31,102.75 137.47,102.39 135.62,102.02 133.78,101.66 131.94,101.30 130.09,100.94 120.65,99.10">
        <lane id="1.0.00_0" index="0" disallow="tram rail_urban rail rail_electric pedestrian ship" speed="13.89" length="19.44" width="3.50" shape="144.50,105.59 142.65,105.23 140.81,104.87 138.97,104.51 137.12,104.15 135.28,103.79 133.43,103.43 131.59,103.07 129.75,102.71 125.42,101.86"/>
    </edge>
    <edge id="2.0.00" from="4" to="2.begin" priority="1" type="driving" shape="120.74,99.14 118.98,108.71 118.62,110.65 118.26,112.59 117.90,114.53 117.55,116.48 117.19,118.42 116.83,120.36 116.48,122.30 116.12,124.24 115.77,126.18 115.41,128.12 115.05,130.07 114.70,132.01 114.34,133.95 113.98,135.89 113.63,137.83 113.27,139.77 112.91,141.72 112.56,143.66 112.20,145.60 111.84,147.54 111.49,149.48 111.13,151.42 110.77,153.36 110.41,155.31 110.05,157.25 109.69,159.19 109.34,161.13 108.98,163.07 108.61,165.01 108.25,166.95 107.89,168.89 107.53,170.83 107.17,172.77 106.80,174.71 106.44,176.65 106.08,178.60 105.71,180.54 105.35,182.48 104.98,184.43 104.62,186.37 104.25,188.32 103.89,190.26 103.52,192.20 103.16,194.15 102.80,196.09 102.43,198.04 102.07,199.98 101.70,201.92 101.34,203.87 100.97,205.81 100.61,207.75 100.24,209.70 99.87,211.64 99.51,213.59 99.14,215.53 98.78,217.47 98.41,219.42 98.04,221.36 97.67,223.30 97.31,225.25 96.94,227.19 96.57,229.13 96.20,231.08 95.83,233.02 95.46,234.96 95.09,236.90 94.72,238.85 94.35,240.79 93.97,242.73 93.60,244.67 93.23,246.62 92.85,248.56 92.48,250.50 92.10,252.44 91.72,254.38 91.35,256.32 90.97,258.27 90.59,260.21 90.21,262.15 89.83,264.09 89.45,266.03 89.06,267.97 88.68,269.91 88.30,271.85 87.91,273.79 87.52,275.73 87.14,277.68 86.74,279.63 86.35,281.58 85.96,283.53 85.56,285.47 85.17,287.42 84.77,289.37 84.37,291.32 83.97,293.26 83.57,295.21 83.17,297.16 82.76,299.11 82.36,301.05 81.96,303.00 81.55,304.94 81.15,306.89 80.74,308.84 80.33,310.78 79.92,312.73 79.52,314.67 79.11,316.62 78.70,318.56 78.29,320.51 77.88,322.45 77.47,324.40 77.06,326.34 76.65,328.29 76.24,330.24 75.83,332.18 75.42,334.13 75.01,336.07 74.60,338.02 74.19,339.96 73.78,341.91 73.37,343.85 72.97,345.80 72.56,347.74 72.15,349.69 71.75,351.64 71.34,353.58 70.93,355.53 70.54,357.44 70.14,359.35 69.74,361.26 69.35,363.17 68.95,365.08 68.55,367.00 68.15,368.91 67.76,370.82 67.36,372.73 66.96,374.64 66.56,376.55 66.17,378.46 65.77,380.38 65.37,382.29 64.97,384.20 64.58,386.11 64.18,388.02 63.78,389.93 63.38,391.84 62.99,393.76 62.59,395.67 62.19,397.58 61.79,399.49 61.40,401.40 61.00,403.31 60.60,405.22">
        <lane id="2.0.00_0" index="0" disallow="tram rail_urban rail rail_electric pedestrian ship" speed="13.89" length="306.83" width="3.50" shape="121.58,104.54 120.75,109.04 120.39,110.98 120.03,112.92 119.67,114.86 119.32,116.80 118.96,118.74 118.60,120.68 118.25,122.63 117.89,124.57 117.54,126.51 117.18,128.45 116.82,130.39 116.47,132.33 116.11,134.27 115.75,136.22 115.40,138.16 115.04,140.10 114.69,142.04 114.33,143.98 113.97,145.92 113.61,147.87 113.26,149.81 112.90,151.75 112.54,153.69 112.18,155.63 111.82,157.57 111.46,159.51 111.10,161.46 110.74,163.40 110.38,165.34 110.02,167.28 109.66,169.22 109.30,171.16 108.94,173.10 108.57,175.04 108.21,176.98 107.84,178.93 107.48,180.87 107.12,182.82 106.75,184.76 106.39,186.70 106.02,188.65 105.66,190.59 105.29,192.54 104.93,194.48 104.56,196.42 104.20,198.37 103.84,200.31 103.47,202.26 103.11,204.20 102.74,206.14 102.38,208.09 102.01,210.03 101.64,211.97 101.28,213.92 100.91,215.86 100.54,217.81 100.18,219.75 99.81,221.69 99.44,223.64 99.07,225.58 98.71,227.52 98.34,229.47 97.97,231.41 97.60,233.36 97.23,235.30 96.86,237.24 96.49,239.18 96.11,241.13 95.74,243.07 95.37,245.01 94.99,246.96 94.62,248.90 94.24,250.84 93.87,252.78 93.49,254.73 93.11,256.67 92.73,258.61 92.36,260.55 91.98,262.49 91.59,264.44 91.21,266.38 90.83,268.32 90.45,270.26 90.06,272.20 89.68,274.14 89.29,276.08 88.90,278.03 88.51,279.98 88.12,281.93 87.72,283.88 87.33,285.83 86.93,287.78 86.53,289.73 86.13,291.68 85.73,293.63 85.33,295.57 84.93,297.52 84.53,299.47 84.12,301.42 83.72,303.36 83.31,305.31 82.91,307.26 82.50,309.20 82.09,311.15 81.69,313.10 81.28,315.04 80.87,316.99 80.46,318.93 80.05,320.88 79.64,322.83 79.23,324.77 78.82,326.72 78.41,328.66 78.00,330.61 77.59,332.55 77.18,334.50 76.77,336.44 76.36,338.39 75.95,340.33 75.54,342.28 75.14,344.22 74.73,346.17 74.32,348.11 73.91,350.06 73.51,352.00 73.10,353.95 72.70,355.89 72.30,357.81 71.90,359.72 71.50,361.63 71.11,363.54 70.71,365.45 70.31,367.36 69.92,369.27 69.52,371.19 69.12,373.10 68.72,375.01 68.33,376.92 67.93,378.83 67.53,380.74 67.13,382.65 66.74,384.57 66.34,386.48 65.94,388.39 65.54,390.30 65.15,392.21 64.75,394.12 64.35,396.03 63.95,397.95 63.56,399.86 63.16,401.77 62.76,403.68 62.36,405.59"/>
    </edge>
    <edge id="3.0.00" from="4" to="3.begin" priority="1" type="driving" shape="120.65,99.10 111.10,97.70 109.15,97.42 107.20,97.13 105.25,96.84 103.30,96.56 101.35,96.27 99.40,95.99 97.46,95.70 95.51,95.41 93.56,95.13 91.61,94.84 89.66,94.55 87.71,94.27 85.76,93.98 83.81,93.70 81.86,93.41 79.91,93.12 77.96,92.84 76.02,92.55 74.07,92.27 72.12,91.98 70.17,91.69 68.22,91.41 66.27,91.12 64.32,90.84 62.37,90.55 60.42,90.26 58.47,89.98 56.52,89.69 54.58,89.41 52.63,89.12 50.68,88.83 48.73,88.55 46.78,88.26 44.83,87.98 42.88,87.69 40.93,87.40 38.98,87.12 37.03,86.83 35.08,86.54 33.13,86.26 31.19,85.97 29.24,85.69 27.29,85.40 25.34,85.11 23.39,84.83 21.44,84.54 19.49,84.26 17.54,83.97 15.59,83.68 13.64,83.40 11.69,83.11 9.75,82.83 7.80,82.54 5.85,82.25 3.90,81.97 1.95,81.68 0.00,81.40">
        <lane id="3.0.00_0" index="0" disallow="tram rail_urban rail rail_electric pedestrian ship" speed="13.89" length="116.86" width="3.50" shape="115.36,100.15 110.84,99.48 108.89,99.20 106.94,98.91 104.99,98.62 103.04,98.34 101.09,98.05 99.14,97.77 97.19,97.48 95.24,97.19 93.30,96.91 91.35,96.62 89.40,96.34 87.45,96.05 85.50,95.76 83.55,95.48 81.60,95.19 79.65,94.91 77.70,94.62 75.75,94.33 73.80,94.05 71.86,93.76 69.91,93.48 67.96,93.19 66.01,92.90 64.06,92.62 62.11,92.33 60.16,92.04 58.21,91.76 56.26,91.47 54.31,91.19 52.36,90.90 50.42,90.61 48.47,90.33 46.52,90.04 44.57,89.76 42.62,89.47 40.67,89.18 38.72,88.90 36.77,88.61 34.82,88.33 32.87,88.04 30.92,87.75 28.98,87.47 27.03,87.18 25.08,86.90 23.13,86.61 21.18,86.32 19.23,86.04 17.28,85.75 15.33,85.47 13.38,85.18 11.43,84.89 9.48,84.61 7.54,84.32 5.59,84.03 3.64,83.75 1.69,83.46 -0.26,83.18"/>
    </edge>

    <junction id="0.end" type="priority" x="141.37" y="0.00" incLanes="-0.0.00_0" intLanes=":0.end_0_0" shape="141.42,0.00 137.83,-0.27 141.32,-0.00">
        <request index="0" response="0" foes="0" cont="0"/>
    </junction>
    <junction id="1.end" type="priority" x="144.84" y="103.83" incLanes="-1.0.00_0" intLanes=":1.end_0_0" shape="144.83,103.88 145.52,100.34 144.85,103.78">
        <request index="0" response="0" foes="0" cont="0"/>
    </junction>
    <junction id="2.begin" type="priority" x="60.60" y="405.22" incLanes="2.0.00_0" intLanes=":2.begin_0_0" shape="60.55,405.21 64.08,405.95 60.65,405.23">
        <request index="0" response="0" foes="0" cont="0"/>
    </junction>
    <junction id="3.begin" type="priority" x="0.00" y="81.40" incLanes="3.0.00_0" intLanes=":3.begin_0_0" shape="0.01,81.35 -0.52,84.91 -0.01,81.45">
        <request index="0" response="0" foes="0" cont="0"/>
    </junction>
    <junction id="4" type="priority" x="120.65" y="99.12" incLanes="1.0.00_0 0.0.00_0 -3.0.00_0 -2.0.00_0" intLanes=":4_0_0 :4_1_0 :4_2_0 :4_3_0 :4_4_0 :4_12_0 :4_6_0 :4_7_0 :4_8_0 :4_9_0 :4_10_0 :4_13_0" shape="125.08,103.58 126.45,96.61 125.29,94.86 118.35,93.36 116.13,94.85 115.10,101.88 116.31,103.57 123.30,104.86">
        <request index="0" response="000000010000" foes="000100010000" cont="0"/>
        <request index="1" response="111000110000" foes="111100110000" cont="0"/>
        <request index="2" response="110011110000" foes="110011110000" cont="0"/>
        <request index="3" response="000000000000" foes="100010000000" cont="0"/>
        <request index="4" response="000000000000" foes="100110000111" cont="0"/>
        <request index="5" response="011000000000" foes="011110000110" cont="1"/>
        <request index="6" response="010000000000" foes="010000000100" cont="0"/>
        <request index="7" response="110000111000" foes="110000111100" cont="0"/>
        <request index="8" response="110000110011" foes="110000110011" cont="0"/>
        <request index="9" response="000000000000" foes="000000100010" cont="0"/>
        <request index="10" response="000000000000" foes="000111100110" cont="0"/>
        <request index="11" response="000000011000" foes="000110011110" cont="1"/>
    </junction>

    <junction id=":4_12_0" type="internal" x="120.80" y="99.23" incLanes=":4_5_0 -2.0.00_0" intLanes=":4_1_0 :4_2_0 :4_7_0 :4_8_0 :4_9_0 :4_10_0"/>
    <junction id=":4_13_0" type="internal" x="120.90" y="98.98" incLanes=":4_11_0 0.0.00_0" intLanes=":4_1_0 :4_2_0 :4_3_0 :4_4_0 :4_7_0 :4_8_0"/>

    <connection from="-0.0.00" to="0.0.00" fromLane="0" toLane="0" via=":0.end_0_0" dir="t" state="M"/>
    <connection from="-1.0.00" to="1.0.00" fromLane="0" toLane="0" via=":1.end_0_0" dir="t" state="M"/>
    <connection from="-2.0.00" to="3.0.00" fromLane="0" toLane="0" via=":4_9_0" dir="r" state="M"/>
    <connection from="-2.0.00" to="-0.0.00" fromLane="0" toLane="0" via=":4_10_0" dir="s" state="M"/>
    <connection from="-2.0.00" to="-1.0.00" fromLane="0" toLane="0" via=":4_11_0" dir="l" state="m"/>
    <connection from="-3.0.00" to="-0.0.00" fromLane="0" toLane="0" via=":4_6_0" dir="r" state="m"/>
    <connection from="-3.0.00" to="-1.0.00" fromLane="0" toLane="0" via=":4_7_0" dir="s" state="m"/>
    <connection from="-3.0.00" to="2.0.00" fromLane="0" toLane="0" via=":4_8_0" dir="l" state="m"/>
    <connection from="0.0.00" to="-1.0.00" fromLane="0" toLane="0" via=":4_3_0" dir="r" state="M"/>
    <connection from="0.0.00" to="2.0.00" fromLane="0" toLane="0" via=":4_4_0" dir="s" state="M"/>
    <connection from="0.0.00" to="3.0.00" fromLane="0" toLane="0" via=":4_5_0" dir="l" state="m"/>
    <connection from="1.0.00" to="2.0.00" fromLane="0" toLane="0" via=":4_0_0" dir="r" state="m"/>
    <connection from="1.0.00" to="3.0.00" fromLane="0" toLane="0" via=":4_1_0" dir="s" state="m"/>
    <connection from="1.0.00" to="-0.0.00" fromLane="0" toLane="0" via=":4_2_0" dir="l" state="m"/>
    <connection from="2.0.00" to="-2.0.00" fromLane="0" toLane="0" via=":2.begin_0_0" dir="t" state="M"/>
    <connection from="3.0.00" to="-3.0.00" fromLane="0" toLane="0" via=":3.begin_0_0" dir="t" state="M"/>

    <connection from=":0.end_0" to="0.0.00" fromLane="0" toLane="0" dir="t" state="M"/>
    <connection from=":1.end_0" to="1.0.00" fromLane="0" toLane="0" dir="t" state="M"/>
    <connection from=":2.begin_0" to="-2.0.00" fromLane="0" toLane="0" dir="t" state="M"/>
    <connection from=":3.begin_0" to="-3.0.00" fromLane="0" toLane="0" dir="t" state="M"/>
    <connection from=":4_0" to="2.0.00" fromLane="0" toLane="0" dir="r" state="M"/>
    <connection from=":4_1" to="3.0.00" fromLane="0" toLane="0" dir="s" state="M"/>
    <connection from=":4_2" to="-0.0.00" fromLane="0" toLane="0" dir="l" state="M"/>
    <connection from=":4_3" to="-1.0.00" fromLane="0" toLane="0" dir="r" state="M"/>
    <connection from=":4_4" to="2.0.00" fromLane="0" toLane="0" dir="s" state="M"/>
    <connection from=":4_5" to="3.0.00" fromLane="0" toLane="0" via=":4_12_0" dir="l" state="m"/>
    <connection from=":4_12" to="3.0.00" fromLane="0" toLane="0" dir="l" state="M"/>
    <connection from=":4_6" to="-0.0.00" fromLane="0" toLane="0" dir="r" state="M"/>
    <connection from=":4_7" to="-1.0.00" fromLane="0" toLane="0" dir="s" state="M"/>
    <connection from=":4_8" to="2.0.00" fromLane="0" toLane="0" dir="l" state="M"/>
    <connection from=":4_9" to="3.0.00" fromLane="0" toLane="0" dir="r" state="M"/>
    <connection from=":4_10" to="-0.0.00" fromLane="0" toLane="0" dir="s" state="M"/>
    <connection from=":4_11" to="-1.0.00" fromLane="0" toLane="0" via=":4_13_0" dir="l" state="m"/>
    <connection from=":4_13" to="-1.0.00" fromLane="0" toLane="0" dir="l" state="M"/>

</net>
