<?xml version="1.0" encoding="UTF-8"?>

<!-- generated on 2021-06-18 16:28:59 by Eclipse SUMO netconvert Version 1.9.2
<configuration xmlns:xsi="http://www.w3.org/2001/XMLSchema-instance" xsi:noNamespaceSchemaLocation="http://sumo.dlr.de/xsd/netconvertConfiguration.xsd">

    <input>
        <opendrive-files value="multi_intersections.xodr"/>
    </input>

    <output>
        <output-file value="multi_intersections.net.xml"/>
    </output>

    <processing>
        <geometry.max-grade.fix value="false"/>
    </processing>

    <tls_building>
        <tls.left-green.time value="0"/>
    </tls_building>

    <junctions>
        <no-internal-links value="false"/>
        <no-turnarounds.except-deadend value="true"/>
        <junctions.scurve-stretch value="1"/>
        <rectangular-lane-cut value="true"/>
    </junctions>

    <report>
        <aggregate-warnings value="5"/>
    </report>

</configuration>
-->

<net version="1.9" junctionCornerDetail="5" rectangularLaneCut="true" limitTurnSpeed="5.50" xmlns:xsi="http://www.w3.org/2001/XMLSchema-instance" xsi:noNamespaceSchemaLocation="http://sumo.dlr.de/xsd/net_file.xsd">

    <location netOffset="-50.00,240.00" convBoundary="0.00,0.00,600.00,480.00" origBoundary="50.00,-240.00,650.00,240.00" projParameter="!"/>

    <type id="bidirectional" priority="1" speed="1.39" disallow="pedestrian tram rail_urban rail rail_electric rail_fast ship" width="3.65"/>
    <type id="border" priority="0" speed="1.39" disallow="all" discard="1" width="0.10"/>
    <type id="driving" priority="1" speed="13.89" disallow="pedestrian tram rail_urban rail rail_electric rail_fast ship" width="3.65"/>
    <type id="entry" priority="1" speed="22.22" disallow="pedestrian tram rail_urban rail rail_electric rail_fast ship" width="3.65"/>
    <type id="exit" priority="1" speed="22.22" disallow="pedestrian tram rail_urban rail rail_electric rail_fast ship" width="3.65"/>
    <type id="median" priority="0" speed="1.39" disallow="all" discard="1" width="0.10"/>
    <type id="mwyEntry" priority="1" speed="22.22" allow="private emergency authority army vip passenger hov taxi bus coach delivery truck trailer motorcycle evehicle custom1 custom2" width="3.65"/>
    <type id="mwyExit" priority="1" speed="22.22" allow="private emergency authority army vip passenger hov taxi bus coach delivery truck trailer motorcycle evehicle custom1 custom2" width="3.65"/>
    <type id="none" priority="0" speed="1.39" disallow="all" discard="1" width="1.00"/>
    <type id="offRamp" priority="1" speed="22.22" allow="private emergency authority army vip passenger hov taxi bus coach delivery truck trailer motorcycle evehicle custom1 custom2" width="3.65"/>
    <type id="onRamp" priority="1" speed="22.22" allow="private emergency authority army vip passenger hov taxi bus coach delivery truck trailer motorcycle evehicle custom1 custom2" width="3.65"/>
    <type id="parking" priority="1" speed="1.39" disallow="pedestrian tram rail_urban rail rail_electric rail_fast ship" width="2.50"/>
    <type id="rail" priority="3" speed="33.33" allow="rail_urban rail rail_electric rail_fast" width="3.65"/>
    <type id="restricted" priority="0" speed="13.89" disallow="all" width="3.65"/>
    <type id="roadWorks" priority="0" speed="1.39" allow="authority" width="3.65"/>
    <type id="shoulder" priority="0" speed="1.39" disallow="all" discard="1" width="1.00"/>
    <type id="special1" priority="1" speed="22.22" allow="custom1" discard="1" width="3.65"/>
    <type id="special2" priority="1" speed="22.22" allow="custom2" discard="1" width="3.65"/>
    <type id="special3" priority="1" speed="22.22" allow="custom1 custom2" discard="1" width="3.65"/>
    <type id="stop" priority="1" speed="13.89" disallow="pedestrian tram rail_urban rail rail_electric rail_fast ship" width="3.65"/>
    <type id="tram" priority="2" speed="13.89" allow="tram" width="3.65"/>

    <edge id=":146_0" function="internal">
        <lane id=":146_0_0" index="0" disallow="pedestrian tram rail_urban rail rail_electric rail_fast ship" speed="8.18" length="14.72" width="3.75" shape="238.13,251.00 237.55,247.01 235.84,244.16 232.99,242.45 229.00,241.88">
            <param key="signalID" value="291"/>
        </lane>
    </edge>
    <edge id=":146_1" function="internal">
        <lane id=":146_1_0" index="0" disallow="pedestrian tram rail_urban rail rail_electric rail_fast ship" speed="13.89" length="23.00" width="3.75" shape="238.13,251.00 238.13,228.00">
            <param key="signalID" value="291"/>
        </lane>
    </edge>
    <edge id=":146_2" function="internal">
        <lane id=":146_2_0" index="0" disallow="pedestrian tram rail_urban rail rail_electric rail_fast ship" speed="9.61" length="7.77" width="3.75" shape="238.13,251.00 238.93,245.37 240.00,243.58">
            <param key="signalID" value="291"/>
        </lane>
    </edge>
    <edge id=":146_12" function="internal">
        <lane id=":146_12_0" index="0" disallow="pedestrian tram rail_urban rail rail_electric rail_fast ship" speed="9.61" length="12.99" width="3.75" shape="240.00,243.58 241.34,241.34 245.37,238.93 251.00,238.13">
            <param key="signalID" value="291"/>
        </lane>
    </edge>
    <edge id=":146_3" function="internal">
        <lane id=":146_3_0" index="0" disallow="pedestrian tram rail_urban rail rail_electric rail_fast ship" speed="8.18" length="14.72" width="3.75" shape="251.00,241.88 247.01,242.45 244.16,244.16 242.45,247.01 241.88,251.00"/>
    </edge>
    <edge id=":146_4" function="internal">
        <lane id=":146_4_0" index="0" disallow="pedestrian tram rail_urban rail rail_electric rail_fast ship" speed="13.89" length="22.00" width="3.75" shape="251.00,241.88 229.00,241.88"/>
    </edge>
    <edge id=":146_5" function="internal">
        <lane id=":146_5_0" index="0" disallow="pedestrian tram rail_urban rail rail_electric rail_fast ship" speed="9.79" length="12.96" width="3.75" shape="251.00,241.88 245.37,241.01 241.34,238.41 240.14,236.25"/>
    </edge>
    <edge id=":146_13" function="internal">
        <lane id=":146_13_0" index="0" disallow="pedestrian tram rail_urban rail rail_electric rail_fast ship" speed="9.79" length="8.62" width="3.75" shape="240.14,236.25 238.93,234.07 238.13,228.00"/>
    </edge>
    <edge id=":146_6" function="internal">
        <lane id=":146_6_0" index="0" disallow="pedestrian tram rail_urban rail rail_electric rail_fast ship" speed="7.62" length="12.58" width="3.75" shape="241.88,228.00 242.45,230.79 244.16,232.78 247.01,233.98 251.00,234.38">
            <param key="signalID" value="281"/>
        </lane>
    </edge>
    <edge id=":146_7" function="internal">
        <lane id=":146_7_0" index="0" disallow="pedestrian tram rail_urban rail rail_electric rail_fast ship" speed="13.89" length="23.00" width="3.75" shape="241.88,228.00 241.88,251.00">
            <param key="signalID" value="281"/>
        </lane>
    </edge>
    <edge id=":146_8" function="internal">
        <lane id=":146_8_0" index="0" disallow="pedestrian tram rail_urban rail rail_electric rail_fast ship" speed="9.79" length="8.32" width="3.75" shape="241.88,228.00 241.07,234.07 240.00,235.99">
            <param key="signalID" value="281"/>
        </lane>
    </edge>
    <edge id=":146_14" function="internal">
        <lane id=":146_14_0" index="0" disallow="pedestrian tram rail_urban rail rail_electric rail_fast ship" speed="9.79" length="13.25" width="3.75" shape="240.00,235.99 238.66,238.41 234.63,241.01 229.00,241.88">
            <param key="signalID" value="281"/>
        </lane>
    </edge>
    <edge id=":146_9" function="internal">
        <lane id=":146_9_0" index="0" disallow="pedestrian tram rail_urban rail rail_electric rail_fast ship" speed="7.62" length="12.58" width="3.75" shape="229.00,234.38 232.99,233.98 235.84,232.78 237.55,230.79 238.13,228.00"/>
    </edge>
    <edge id=":146_10" function="internal">
        <lane id=":146_10_0" index="0" disallow="pedestrian tram rail_urban rail rail_electric rail_fast ship" speed="13.89" length="22.00" width="3.75" shape="229.00,234.38 251.00,234.38"/>
    </edge>
    <edge id=":146_11" function="internal">
        <lane id=":146_11_0" index="0" disallow="pedestrian tram rail_urban rail rail_electric rail_fast ship" speed="9.61" length="7.77" width="3.75" shape="229.00,238.13 234.63,238.93 236.42,240.00"/>
    </edge>
    <edge id=":146_15" function="internal">
        <lane id=":146_15_0" index="0" disallow="pedestrian tram rail_urban rail rail_electric rail_fast ship" speed="9.61" length="12.99" width="3.75" shape="236.42,240.00 238.66,241.34 241.07,245.37 241.88,251.00"/>
    </edge>
    <edge id=":148_0" function="internal">
        <lane id=":148_0_0" index="0" disallow="pedestrian tram rail_urban rail rail_electric rail_fast ship" speed="13.89" length="22.00" width="3.75" shape="-1.87,251.00 -1.87,229.00">
            <param key="signalID" value="9385"/>
        </lane>
    </edge>
    <edge id=":148_1" function="internal">
        <lane id=":148_1_0" index="0" disallow="pedestrian tram rail_urban rail rail_electric rail_fast ship" speed="9.61" length="7.77" width="3.75" shape="-1.87,251.00 -1.07,245.37 0.00,243.58">
            <param key="signalID" value="9385"/>
        </lane>
    </edge>
    <edge id=":148_6" function="internal">
        <lane id=":148_6_0" index="0" disallow="pedestrian tram rail_urban rail rail_electric rail_fast ship" speed="9.61" length="12.99" width="3.75" shape="0.00,243.58 1.34,241.34 5.37,238.93 11.00,238.13">
            <param key="signalID" value="9385"/>
        </lane>
    </edge>
    <edge id=":148_2" function="internal">
        <lane id=":148_2_0" index="0" disallow="pedestrian tram rail_urban rail rail_electric rail_fast ship" speed="8.18" length="14.72" width="3.75" shape="11.00,241.88 7.01,242.45 4.16,244.16 2.45,247.01 1.88,251.00">
            <param key="signalID" value="6351"/>
        </lane>
    </edge>
    <edge id=":148_3" function="internal">
        <lane id=":148_3_0" index="0" disallow="pedestrian tram rail_urban rail rail_electric rail_fast ship" speed="9.61" length="20.76" width="3.75" shape="11.00,241.88 5.37,241.07 1.34,238.66 -1.07,234.63 -1.87,229.00">
            <param key="signalID" value="6351"/>
        </lane>
    </edge>
    <edge id=":148_4" function="internal">
        <lane id=":148_4_0" index="0" disallow="pedestrian tram rail_urban rail rail_electric rail_fast ship" speed="8.18" length="14.72" width="3.75" shape="1.88,229.00 2.45,232.99 4.16,235.84 7.01,237.55 11.00,238.13">
            <param key="signalID" value="3318"/>
        </lane>
    </edge>
    <edge id=":148_5" function="internal">
        <lane id=":148_5_0" index="0" disallow="pedestrian tram rail_urban rail rail_electric rail_fast ship" speed="13.89" length="22.00" width="3.75" shape="1.88,229.00 1.88,251.00">
            <param key="signalID" value="3318"/>
        </lane>
    </edge>
    <edge id=":150_0" function="internal">
        <lane id=":150_0_0" index="0" disallow="pedestrian tram rail_urban rail rail_electric rail_fast ship" speed="8.18" length="14.72" width="3.75" shape="478.13,251.00 477.55,247.01 475.84,244.16 472.99,242.45 469.00,241.88">
            <param key="signalID" value="15441"/>
        </lane>
    </edge>
    <edge id=":150_1" function="internal">
        <lane id=":150_1_0" index="0" disallow="pedestrian tram rail_urban rail rail_electric rail_fast ship" speed="13.89" length="22.00" width="3.75" shape="478.13,251.00 478.13,229.00">
            <param key="signalID" value="15441"/>
        </lane>
    </edge>
    <edge id=":150_2" function="internal">
        <lane id=":150_2_0" index="0" disallow="pedestrian tram rail_urban rail rail_electric rail_fast ship" speed="9.61" length="7.77" width="3.75" shape="478.13,251.00 478.93,245.37 480.00,243.58">
            <param key="signalID" value="15441"/>
        </lane>
    </edge>
    <edge id=":150_12" function="internal">
        <lane id=":150_12_0" index="0" disallow="pedestrian tram rail_urban rail rail_electric rail_fast ship" speed="9.61" length="12.99" width="3.75" shape="480.00,243.58 481.34,241.34 485.37,238.93 491.00,238.13">
            <param key="signalID" value="15441"/>
        </lane>
    </edge>
    <edge id=":150_3" function="internal">
        <lane id=":150_3_0" index="0" disallow="pedestrian tram rail_urban rail rail_electric rail_fast ship" speed="8.18" length="14.72" width="3.75" shape="491.00,241.88 487.01,242.45 484.16,244.16 482.45,247.01 481.88,251.00">
            <param key="signalID" value="12408"/>
        </lane>
    </edge>
    <edge id=":150_4" function="internal">
        <lane id=":150_4_0" index="0" disallow="pedestrian tram rail_urban rail rail_electric rail_fast ship" speed="13.89" length="22.00" width="3.75" shape="491.00,241.88 469.00,241.88">
            <param key="signalID" value="12408"/>
        </lane>
    </edge>
    <edge id=":150_5" function="internal">
        <lane id=":150_5_0" index="0" disallow="pedestrian tram rail_urban rail rail_electric rail_fast ship" speed="9.61" length="7.77" width="3.75" shape="491.00,241.88 485.37,241.07 483.58,240.00">
            <param key="signalID" value="12408"/>
        </lane>
    </edge>
    <edge id=":150_13" function="internal">
        <lane id=":150_13_0" index="0" disallow="pedestrian tram rail_urban rail rail_electric rail_fast ship" speed="9.61" length="12.99" width="3.75" shape="483.58,240.00 481.34,238.66 478.93,234.63 478.13,229.00">
            <param key="signalID" value="12408"/>
        </lane>
    </edge>
    <edge id=":150_6" function="internal">
        <lane id=":150_6_0" index="0" disallow="pedestrian tram rail_urban rail rail_electric rail_fast ship" speed="8.18" length="14.72" width="3.75" shape="481.88,229.00 482.45,232.99 484.16,235.84 487.01,237.55 491.00,238.13">
            <param key="signalID" value="21495"/>
        </lane>
    </edge>
    <edge id=":150_7" function="internal">
        <lane id=":150_7_0" index="0" disallow="pedestrian tram rail_urban rail rail_electric rail_fast ship" speed="13.89" length="22.00" width="3.75" shape="481.88,229.00 481.88,251.00">
            <param key="signalID" value="21495"/>
        </lane>
    </edge>
    <edge id=":150_8" function="internal">
        <lane id=":150_8_0" index="0" disallow="pedestrian tram rail_urban rail rail_electric rail_fast ship" speed="9.61" length="7.77" width="3.75" shape="481.88,229.00 481.07,234.63 480.00,236.42">
            <param key="signalID" value="21495"/>
        </lane>
    </edge>
    <edge id=":150_14" function="internal">
        <lane id=":150_14_0" index="0" disallow="pedestrian tram rail_urban rail rail_electric rail_fast ship" speed="9.61" length="12.99" width="3.75" shape="480.00,236.42 478.66,238.66 474.63,241.07 469.00,241.88">
            <param key="signalID" value="21495"/>
        </lane>
    </edge>
    <edge id=":150_9" function="internal">
        <lane id=":150_9_0" index="0" disallow="pedestrian tram rail_urban rail rail_electric rail_fast ship" speed="8.18" length="14.72" width="3.75" shape="469.00,238.13 472.99,237.55 475.84,235.84 477.55,232.99 478.13,229.00">
            <param key="signalID" value="18475"/>
        </lane>
    </edge>
    <edge id=":150_10" function="internal">
        <lane id=":150_10_0" index="0" disallow="pedestrian tram rail_urban rail rail_electric rail_fast ship" speed="13.89" length="22.00" width="3.75" shape="469.00,238.13 491.00,238.13">
            <param key="signalID" value="18475"/>
        </lane>
    </edge>
    <edge id=":150_11" function="internal">
        <lane id=":150_11_0" index="0" disallow="pedestrian tram rail_urban rail rail_electric rail_fast ship" speed="9.61" length="7.77" width="3.75" shape="469.00,238.13 474.63,238.93 476.42,240.00">
            <param key="signalID" value="18475"/>
        </lane>
    </edge>
    <edge id=":150_15" function="internal">
        <lane id=":150_15_0" index="0" disallow="pedestrian tram rail_urban rail rail_electric rail_fast ship" speed="9.61" length="12.99" width="3.75" shape="476.42,240.00 478.66,241.34 481.07,245.37 481.88,251.00">
            <param key="signalID" value="18475"/>
        </lane>
    </edge>
    <edge id=":152_0" function="internal">
        <lane id=":152_0_0" index="0" disallow="pedestrian tram rail_urban rail rail_electric rail_fast ship" speed="13.89" length="22.00" width="3.75" shape="251.00,481.88 229.00,481.88">
            <param key="signalID" value="30595"/>
        </lane>
    </edge>
    <edge id=":152_1" function="internal">
        <lane id=":152_1_0" index="0" disallow="pedestrian tram rail_urban rail rail_electric rail_fast ship" speed="9.61" length="7.77" width="3.75" shape="251.00,481.88 245.37,481.07 243.58,480.00">
            <param key="signalID" value="30595"/>
        </lane>
    </edge>
    <edge id=":152_6" function="internal">
        <lane id=":152_6_0" index="0" disallow="pedestrian tram rail_urban rail rail_electric rail_fast ship" speed="9.61" length="12.99" width="3.75" shape="243.58,480.00 241.34,478.66 238.93,474.63 238.12,469.00">
            <param key="signalID" value="30595"/>
        </lane>
    </edge>
    <edge id=":152_2" function="internal">
        <lane id=":152_2_0" index="0" disallow="pedestrian tram rail_urban rail rail_electric rail_fast ship" speed="8.18" length="14.72" width="3.75" shape="241.87,469.00 242.45,472.99 244.16,475.84 247.01,477.55 251.00,478.13">
            <param key="signalID" value="27561"/>
        </lane>
    </edge>
    <edge id=":152_3" function="internal">
        <lane id=":152_3_0" index="0" disallow="pedestrian tram rail_urban rail rail_electric rail_fast ship" speed="9.61" length="20.76" width="3.75" shape="241.87,469.00 241.07,474.63 238.66,478.66 234.63,481.07 229.00,481.88">
            <param key="signalID" value="27561"/>
        </lane>
    </edge>
    <edge id=":152_4" function="internal">
        <lane id=":152_4_0" index="0" disallow="pedestrian tram rail_urban rail rail_electric rail_fast ship" speed="8.18" length="14.72" width="3.75" shape="229.00,478.13 232.99,477.55 235.84,475.84 237.55,472.99 238.12,469.00">
            <param key="signalID" value="24528"/>
        </lane>
    </edge>
    <edge id=":152_5" function="internal">
        <lane id=":152_5_0" index="0" disallow="pedestrian tram rail_urban rail rail_electric rail_fast ship" speed="13.89" length="22.00" width="3.75" shape="229.00,478.13 251.00,478.13">
            <param key="signalID" value="24528"/>
        </lane>
    </edge>
    <edge id=":154_0" function="internal">
        <lane id=":154_0_0" index="0" disallow="pedestrian tram rail_urban rail rail_electric rail_fast ship" speed="8.18" length="14.72" width="3.75" shape="238.13,11.00 237.55,7.01 235.84,4.16 232.99,2.45 229.00,1.88">
            <param key="signalID" value="36651"/>
        </lane>
    </edge>
    <edge id=":154_1" function="internal">
        <lane id=":154_1_0" index="0" disallow="pedestrian tram rail_urban rail rail_electric rail_fast ship" speed="9.61" length="20.76" width="3.75" shape="238.13,11.00 238.93,5.37 241.34,1.34 245.37,-1.07 251.00,-1.87">
            <param key="signalID" value="36651"/>
        </lane>
    </edge>
    <edge id=":154_2" function="internal">
        <lane id=":154_2_0" index="0" disallow="pedestrian tram rail_urban rail rail_electric rail_fast ship" speed="8.18" length="14.72" width="3.75" shape="251.00,1.88 247.01,2.45 244.16,4.16 242.45,7.01 241.88,11.00">
            <param key="signalID" value="33618"/>
        </lane>
    </edge>
    <edge id=":154_3" function="internal">
        <lane id=":154_3_0" index="0" disallow="pedestrian tram rail_urban rail rail_electric rail_fast ship" speed="13.89" length="22.00" width="3.75" shape="251.00,1.88 229.00,1.88">
            <param key="signalID" value="33618"/>
        </lane>
    </edge>
    <edge id=":154_4" function="internal">
        <lane id=":154_4_0" index="0" disallow="pedestrian tram rail_urban rail rail_electric rail_fast ship" speed="13.89" length="22.00" width="3.75" shape="229.00,-1.87 251.00,-1.87">
            <param key="signalID" value="39685"/>
        </lane>
    </edge>
    <edge id=":154_5" function="internal">
        <lane id=":154_5_0" index="0" disallow="pedestrian tram rail_urban rail rail_electric rail_fast ship" speed="9.61" length="7.77" width="3.75" shape="229.00,-1.87 234.63,-1.07 236.42,0.00">
            <param key="signalID" value="39685"/>
        </lane>
    </edge>
    <edge id=":154_6" function="internal">
        <lane id=":154_6_0" index="0" disallow="pedestrian tram rail_urban rail rail_electric rail_fast ship" speed="9.61" length="12.99" width="3.75" shape="236.42,0.00 238.66,1.34 241.07,5.37 241.88,11.00">
            <param key="signalID" value="39685"/>
        </lane>
    </edge>
    <edge id=":202.46.76_0" function="internal">
        <lane id=":202.46.76_0_0" index="0" disallow="pedestrian tram rail_urban rail rail_electric rail_fast ship" speed="13.89" length="6.33" width="3.75" shape="185.40,241.88 179.08,241.88"/>
    </edge>
    <edge id=":202.46.76_1" function="internal">
        <lane id=":202.46.76_1_0" index="0" disallow="pedestrian tram rail_urban rail rail_electric rail_fast ship" speed="13.89" length="6.58" width="3.75" shape="179.08,236.36 181.00,236.05 182.24,235.37 183.48,234.69 185.40,234.38">
            <param key="signalID" value="295"/>
        </lane>
        <lane id=":202.46.76_1_1" index="1" allow="emergency authority" speed="13.89" length="6.58" width="3.75" shape="179.08,239.12 180.97,238.96 182.24,238.62 183.51,238.28 185.40,238.13">
            <param key="signalID" value="295"/>
        </lane>
    </edge>
    <edge id=":209.46.76_0" function="internal">
        <lane id=":209.46.76_0_0" index="0" disallow="pedestrian tram rail_urban rail rail_electric rail_fast ship" speed="13.89" length="3.00" width="3.75" shape="299.26,241.88 296.26,241.88">
            <param key="signalID" value="288"/>
        </lane>
    </edge>
    <edge id=":209.46.76_1" function="internal">
        <lane id=":209.46.76_1_0" index="0" allow="emergency authority" speed="13.89" length="3.11" width="1.76" shape="296.26,234.38 297.17,234.53 297.76,234.87 298.35,235.21 299.26,235.37"/>
        <lane id=":209.46.76_1_1" index="1" disallow="pedestrian tram rail_urban rail rail_electric rail_fast ship" speed="13.89" length="3.11" width="3.75" shape="296.26,238.13 299.26,238.13"/>
    </edge>
    <edge id=":222.202_0" function="internal">
        <lane id=":222.202_0_0" index="0" disallow="pedestrian tram rail_urban rail rail_electric rail_fast ship" speed="13.89" length="8.00" width="3.75" shape="124.00,241.88 116.00,241.88"/>
    </edge>
    <edge id=":222.202_1" function="internal">
        <lane id=":222.202_1_0" index="0" disallow="pedestrian tram rail_urban rail rail_electric rail_fast ship" speed="13.89" length="8.25" width="3.75" shape="116.00,238.13 118.40,237.85 120.00,237.24 121.60,236.64 124.00,236.36"/>
    </edge>
    <edge id=":235.209_0" function="internal">
        <lane id=":235.209_0_0" index="0" disallow="pedestrian tram rail_urban rail rail_electric rail_fast ship" speed="13.89" length="8.00" width="3.75" shape="364.00,241.88 356.00,241.88"/>
    </edge>
    <edge id=":235.209_1" function="internal">
        <lane id=":235.209_1_0" index="0" disallow="pedestrian tram rail_urban rail rail_electric rail_fast ship" speed="13.89" length="8.00" width="3.75" shape="356.00,238.13 364.00,238.13"/>
    </edge>
    <edge id=":242.end_0" function="internal">
        <lane id=":242.end_0_0" index="0" disallow="pedestrian tram rail_urban rail rail_electric rail_fast ship" speed="3.95" length="5.48" width="3.75" shape="600.00,238.13 601.41,239.06 601.88,240.00 601.41,240.94 600.00,241.88"/>
    </edge>
    <edge id=":261.196_0" function="internal">
        <lane id=":261.196_0_0" index="0" disallow="pedestrian tram rail_urban rail rail_electric rail_fast ship" speed="13.89" length="0.10" width="3.75" shape="238.12,360.00 238.13,360.00"/>
    </edge>
    <edge id=":261.196_1" function="internal">
        <lane id=":261.196_1_0" index="0" disallow="pedestrian tram rail_urban rail rail_electric rail_fast ship" speed="13.89" length="0.10" width="3.75" shape="241.88,360.00 241.87,360.00"/>
    </edge>
    <edge id=":267.217_0" function="internal">
        <lane id=":267.217_0_0" index="0" disallow="pedestrian tram rail_urban rail rail_electric rail_fast ship" speed="13.89" length="0.10" width="3.75" shape="-1.87,360.00 -1.87,360.00"/>
    </edge>
    <edge id=":267.217_1" function="internal">
        <lane id=":267.217_1_0" index="0" disallow="pedestrian tram rail_urban rail rail_electric rail_fast ship" speed="13.89" length="0.10" width="3.75" shape="1.88,360.00 1.88,360.00"/>
    </edge>
    <edge id=":267.266_0" function="internal">
        <lane id=":267.266_0_0" index="0" disallow="pedestrian tram rail_urban rail rail_electric rail_fast ship" speed="13.89" length="0.10" width="3.75" shape="120.00,481.88 120.00,481.87"/>
    </edge>
    <edge id=":267.266_1" function="internal">
        <lane id=":267.266_1_0" index="0" disallow="pedestrian tram rail_urban rail rail_electric rail_fast ship" speed="13.89" length="0.10" width="3.75" shape="120.00,478.12 120.00,478.13"/>
    </edge>
    <edge id=":275.197_0" function="internal">
        <lane id=":275.197_0_0" index="0" disallow="pedestrian tram rail_urban rail rail_electric rail_fast ship" speed="13.89" length="0.10" width="3.75" shape="238.13,120.00 238.13,120.00"/>
    </edge>
    <edge id=":275.197_1" function="internal">
        <lane id=":275.197_1_0" index="0" disallow="pedestrian tram rail_urban rail rail_electric rail_fast ship" speed="13.89" length="0.10" width="3.75" shape="241.88,120.00 241.88,120.00"/>
    </edge>
    <edge id=":281.227_0" function="internal">
        <lane id=":281.227_0_0" index="0" disallow="pedestrian tram rail_urban rail rail_electric rail_fast ship" speed="13.89" length="0.10" width="3.75" shape="-1.88,120.00 -1.87,120.00"/>
    </edge>
    <edge id=":281.227_1" function="internal">
        <lane id=":281.227_1_0" index="0" disallow="pedestrian tram rail_urban rail rail_electric rail_fast ship" speed="13.89" length="0.10" width="3.75" shape="1.88,120.00 1.88,120.00"/>
    </edge>
    <edge id=":281.270_0" function="internal">
        <lane id=":281.270_0_0" index="0" disallow="pedestrian tram rail_urban rail rail_electric rail_fast ship" speed="13.89" length="0.10" width="3.75" shape="120.00,1.88 120.00,1.88"/>
    </edge>
    <edge id=":281.270_1" function="internal">
        <lane id=":281.270_1_0" index="0" disallow="pedestrian tram rail_urban rail rail_electric rail_fast ship" speed="13.89" length="0.10" width="3.75" shape="120.00,-1.87 120.00,-1.87"/>
    </edge>
    <edge id=":283.230_0" function="internal">
        <lane id=":283.230_0_0" index="0" disallow="pedestrian tram rail_urban rail rail_electric rail_fast ship" speed="13.89" length="0.10" width="3.75" shape="478.13,120.00 478.13,120.00"/>
    </edge>
    <edge id=":283.230_1" function="internal">
        <lane id=":283.230_1_0" index="0" disallow="pedestrian tram rail_urban rail rail_electric rail_fast ship" speed="13.89" length="0.10" width="3.75" shape="481.88,120.00 481.88,120.00"/>
    </edge>
    <edge id=":283.280_0" function="internal">
        <lane id=":283.280_0_0" index="0" disallow="pedestrian tram rail_urban rail rail_electric rail_fast ship" speed="13.89" length="0.10" width="3.75" shape="360.00,1.88 360.00,1.87"/>
    </edge>
    <edge id=":283.280_1" function="internal">
        <lane id=":283.280_1_0" index="0" disallow="pedestrian tram rail_urban rail rail_electric rail_fast ship" speed="13.89" length="0.10" width="3.75" shape="360.00,-1.87 360.00,-1.87"/>
    </edge>
    <edge id=":284.229_0" function="internal">
        <lane id=":284.229_0_0" index="0" disallow="pedestrian tram rail_urban rail rail_electric rail_fast ship" speed="3.95" length="5.48" width="3.75" shape="481.87,360.00 480.94,361.41 480.00,361.88 479.06,361.41 478.12,360.00"/>
    </edge>
    <edge id=":284.256_0" function="internal">
        <lane id=":284.256_0_0" index="0" disallow="pedestrian tram rail_urban rail rail_electric rail_fast ship" speed="13.89" length="0.10" width="3.75" shape="360.00,481.88 360.00,481.88"/>
    </edge>
    <edge id=":284.256_1" function="internal">
        <lane id=":284.256_1_0" index="0" disallow="pedestrian tram rail_urban rail rail_electric rail_fast ship" speed="13.89" length="0.10" width="3.75" shape="360.00,478.13 360.00,478.13"/>
    </edge>
    <edge id=":284.begin_0" function="internal">
        <lane id=":284.begin_0_0" index="0" disallow="pedestrian tram rail_urban rail rail_electric rail_fast ship" speed="3.95" length="5.48" width="3.75" shape="478.12,360.00 479.06,358.59 480.00,358.13 480.94,358.59 481.87,360.00"/>
    </edge>

    <edge id="-196.0.00" from="146" to="261.196" priority="1" type="driving" shape="240.00,251.00 240.00,360.00">
        <lane id="-196.0.00_0" index="0" disallow="pedestrian tram rail_urban rail rail_electric rail_fast ship" speed="13.89" length="109.00" width="3.75" shape="241.88,251.00 241.88,360.00" type="driving"/>
    </edge>
    <edge id="-197.0.00" from="146" to="275.197" priority="1" type="driving" shape="240.00,228.00 240.00,120.00">
        <lane id="-197.0.00_0" index="0" disallow="pedestrian tram rail_urban rail rail_electric rail_fast ship" speed="13.89" length="108.00" width="3.75" shape="238.13,228.00 238.13,120.00" type="driving"/>
    </edge>
    <edge id="-202.0.00" from="146" to="202.46.76" priority="1" type="driving" shape="229.00,240.00 185.40,240.00">
        <lane id="-202.0.00_0" index="0" disallow="pedestrian tram rail_urban rail rail_electric rail_fast ship" speed="13.89" length="43.60" width="3.75" shape="229.00,241.88 185.40,241.88" type="driving"/>
    </edge>