<?xml version="1.0" encoding="UTF-8"?>

<!-- generated on 2021-06-18 16:29:20 by Eclipse SUMO duarouter Version 1.9.2
<configuration xmlns:xsi="http://www.w3.org/2001/XMLSchema-instance" xsi:noNamespaceSchemaLocation="http://sumo.dlr.de/xsd/duarouterConfiguration.xsd">

    <input>
        <net-file value="multi_intersections.net.xml"/>
        <route-files value="multi_intersections.trips.xml"/>
    </input>

    <output>
        <output-file value="multi_intersections.rou.xml"/>
        <alternatives-output value="multi_intersections.rou.alt.xml"/>
    </output>

    <report>
        <ignore-errors value="true"/>
    </report>

</configuration>
-->

<routes xmlns:xsi="http://www.w3.org/2001/XMLSchema-instance" xsi:noNamespaceSchemaLocation="http://sumo.dlr.de/xsd/routes_file.xsd">
    <vehicle id="0" depart="0.00">
        <route edges="217.0.00 -222.0.00 202.46.76 202.0.00 -197.0.00"/>
    </vehicle>
    <vehicle id="1" depart="0.00">
        <route edges="-256.0.00 284.0.00 -284.0.00 256.0.00 -261.0.00 196.0.00 -209.0.00 -209.46.76 235.0.00 -229.0.00"/>
    </vehicle>
    <vehicle id="2" depart="0.00">
        <route edges="230.0.00 -235.0.00 209.46.76 209.0.00 -202.0.00 -202.46.76 222.0.00"/>
    </vehicle>
    <vehicle id="3" depart="0.00">
        <route edges="270.0.00 -275.0.00 197.0.00 -202.0.00 -202.46.76"/>
    </vehicle>
    <vehicle id="4" depart="0.00">
        <route edges="-281.0.00 270.0.00 -280.0.00 283.0.00 230.0.00 -235.0.00 209.46.76 209.0.00 -197.0.00"/>
    </vehicle>
    <vehicle id="5" depart="0.00">
        <route edges="-230.0.00 -283.0.00"/>
    </vehicle>
    <vehicle id="6" depart="0.00">
        <route edges="-197.0.00 275.0.00 -280.0.00 283.0.00 230.0.00 -235.0.00 209.46.76 209.0.00 -202.0.00 -202.46.76 222.0.00 -227.0.00"/>
    </vehicle>
    <vehicle id="7" depart="0.00">
        <route edges="217.0.00 -227.0.00 -281.0.00 270.0.00 -275.0.00 197.0.00"/>
    </vehicle>
    <vehicle id="8" depart="0.00">
        <route edges="-230.0.00 -283.0.00 280.0.00 -270.0.00 281.0.00 227.0.00 -222.0.00 202.46.76"/>
    </vehicle>
    <vehicle id="9" depart="0.00">
        <route edges="256.0.00 -266.0.00 -267.0.00 217.0.00 -222.0.00 202.46.76 202.0.00 -196.0.00"/>
    </vehicle>
    <vehicle id="10" depart="0.00">
        <route edges="256.0.00 -261.0.00 196.0.00 -197.0.00 275.0.00 -270.0.00 281.0.00 227.0.00"/>
    </vehicle>
    <vehicle id="11" depart="0.00">
        <route edges="-267.0.00 217.0.00 -222.0.00 202.46.76 202.0.00 -197.0.00 275.0.00 -270.0.00 281.0.00 227.0.00 -217.0.00"/>
    </vehicle>
    <vehicle id="12" depart="0.00">
        <route edges="281.0.00 227.0.00 -217.0.00 267.0.00 266.0.00 -261.0.00"/>
    </vehicle>
    <vehicle id="13" depart="0.00">
        <route edges="-202.46.76 222.0.00 -217.0.00 267.0.00 266.0.00 -261.0.00 196.0.00 -209.0.00"/>
    </vehicle>
    <vehicle id="14" depart="0.00">
        <route edges="266.0.00 -261.0.00 196.0.00 -197.0.00 275.0.00 -270.0.00 281.0.00 227.0.00 -222.0.00 202.46.76"/>
    </vehicle>
    <vehicle id="15" depart="0.00">
        <route edges="256.0.00 -261.0.00 196.0.00 -197.0.00 275.0.00 -280.0.00 283.0.00 230.0.00"/>
    </vehicle>
    <vehicle id="16" depart="0.00">
        <route edges="202.0.00 -197.0.00 275.0.00 -280.0.00 283.0.00"/>
    </vehicle>
    <vehicle id="17" depart="0.00">
        <route edges="-275.0.00 197.0.00"/>
    </vehicle>
    <vehicle id="18" depart="0.00">
        <route edges="261.0.00 -266.0.00 -267.0.00 217.0.00 -222.0.00 202.46.76 202.0.00 -209.0.00 -209.46.76 235.0.00 -242.0.00 242.0.00 -235.0.00 209.46.76 209.0.00"/>
    </vehicle>
    <vehicle id="19" depart="0.00">
        <route edges="267.0.00 266.0.00 -261.0.00 196.0.00 -197.0.00 275.0.00 -270.0.00 281.0.00 227.0.00 -222.0.00 202.46.76 202.0.00"/>
    </vehicle>
    <vehicle id="20" depart="0.00">
        <route edges="229.0.00 -235.0.00 209.46.76 209.0.00 -197.0.00"/>
    </vehicle>
    <vehicle id="21" depart="0.00">
        <route edges="-230.0.00 -283.0.00 280.0.00 -275.0.00 197.0.00 -209.0.00 -209.46.76 235.0.00 -242.0.00"/>
    </vehicle>
    <vehicle id="22" depart="0.00">
        <route edges="-202.46.76 222.0.00 -217.0.00 267.0.00 266.0.00 -261.0.00 196.0.00 -209.0.00 -209.46.76 235.0.00 -230.0.00"/>
    </vehicle>
    <vehicle id="23" depart="0.00">
        <route edges="-209.0.00 -209.46.76 235.0.00 -242.0.00 242.0.00 -235.0.00"/>
    </vehicle>
    <vehicle id="24" depart="0.00">
        <route edges="217.0.00 -222.0.00 202.46.76 202.0.00 -196.0.00 261.0.00 -266.0.00"/>
    </vehicle>
    <vehicle id="25" depart="0.00">
        <route edges="-270.0.00 281.0.00 227.0.00 -222.0.00 202.46.76 202.0.00 -209.0.00 -209.46.76 235.0.00 -229.0.00"/>
    </vehicle>
    <vehicle id="26" depart="0.00">
        <route edges="-256.0.00 284.0.00 -284.0.00 256.0.00 -261.0.00 196.0.00 -197.0.00 275.0.00 -270.0.00 281.0.00"/>
    </vehicle>
    <vehicle id="27" depart="0.00">
        <route edges="217.0.00 -222.0.00 202.46.76 202.0.00 -209.0.00 -209.46.76 235.0.00 -242.0.00 242.0.00 -235.0.00 209.46.76 209.0.00"/>
    </vehicle>
    <vehicle id="28" depart="0.00">
        <route edges="-222.0.00 202.46.76 202.0.00 -197.0.00 275.0.00 -280.0.00 283.0.00 230.0.00"/>
    </vehicle>
    <vehicle id="29" depart="0.00">
        <route edges="-222.0.00 202.46.76 202.0.00 -196.0.00 261.0.00 -266.0.00 -267.0.00"/>
    </vehicle>
    <vehicle id="30" depart="0.00">
        <route edges="283.0.00 230.0.00 -235.0.00 209.46.76"/>
    </vehicle>
    <vehicle id="31" depart="0.00">
        <route edges="202.0.00 -209.0.00 -209.46.76 235.0.00 -242.0.00 242.0.00 -235.0.00 209.46.76 209.0.00 -202.0.00 -202.46.76 222.0.00"/>
    </vehicle>
    <vehicle id="32" depart="0.00">
        <route edges="266.0.00 -256.0.00 284.0.00 -284.0.00 256.0.00"/>
    </vehicle>
    <vehicle id="33" depart="0.00">
        <route edges="-230.0.00 -283.0.00 280.0.00 -270.0.00 281.0.00 227.0.00 -222.0.00 202.46.76 202.0.00 -197.0.00"/>
    </vehicle>
    <vehicle id="34" depart="0.00">
        <route edges="-266.0.00 -267.0.00 217.0.00 -222.0.00 202.46.76 202.0.00 -209.0.00 -209.46.76 235.0.00 -242.0.00 242.0.00 -235.0.00"/>
    </vehicle>
    <vehicle id="35" depart="0.00">
        <route edges="-230.0.00 -283.0.00 280.0.00 -270.0.00 281.0.00"/>
    </vehicle>
    <vehicle id="36" depart="0.00">
        <route edges="267.0.00 266.0.00 -256.0.00"/>
    </vehicle>
    <vehicle id="37" depart="0.00">
        <route edges="222.0.00 -217.0.00 267.0.00 266.0.00 -261.0.00 196.0.00 -197.0.00 275.0.00 -270.0.00"/>
    </vehicle>
    <vehicle id="38" depart="0.00">
        <route edges="275.0.00 -280.0.00"/>
    </vehicle>
    <vehicle id="39" depart="0.00">
        <route edges="-256.0.00 284.0.00 -284.0.00 256.0.00 -261.0.00 196.0.00 -209.0.00 -209.46.76 235.0.00 -230.0.00"/>
    </vehicle>
    <vehicle id="40" depart="0.00">
        <route edges="202.46.76 202.0.00 -209.0.00 -209.46.76 235.0.00 -242.0.00 242.0.00 -235.0.00"/>
    </vehicle>
    <vehicle id="41" depart="0.00">
        <route edges="209.0.00 -197.0.00 275.0.00"/>
    </vehicle>
    <vehicle id="42" depart="0.00">
        <route edges="-280.0.00 283.0.00 230.0.00 -229.0.00"/>
    </vehicle>
    <vehicle id="43" depart="0.00">
        <route edges="283.0.00 230.0.00 -229.0.00 229.0.00 -230.0.00 -283.0.00"/>
    </vehicle>
    <vehicle id="44" depart="0.00">
        <route edges="-202.46.76 222.0.00 -217.0.00 267.0.00 266.0.00 -261.0.00 196.0.00 -202.0.00"/>
    </vehicle>
    <vehicle id="45" depart="0.00">
        <route edges="-209.0.00 -209.46.76 235.0.00 -242.0.00 242.0.00 -235.0.00 209.46.76 209.0.00"/>
    </vehicle>
    <vehicle id="46" depart="0.00">
        <route edges="256.0.00 -266.0.00 -267.0.00 217.0.00 -227.0.00 -281.0.00 270.0.00 -275.0.00"/>
    </vehicle>
    <vehicle id="47" depart="0.00">
        <route edges="-202.0.00 -202.46.76 222.0.00 -227.0.00 -281.0.00 270.0.00 -275.0.00 197.0.00 -196.0.00 261.0.00 -266.0.00 -267.0.00"/>
    </vehicle>
    <vehicle id="48" depart="0.00">
        <route edges="283.0.00 230.0.00 -235.0.00 209.46.76 209.0.00 -202.0.00 -202.46.76 222.0.00 -217.0.00 267.0.00 266.0.00 -261.0.00 196.0.00"/>
    </vehicle>
    <vehicle id="49" depart="0.00">
        <route edges="281.0.00 227.0.00 -217.0.00 267.0.00 266.0.00 -261.0.00 196.0.00 -202.0.00 -202.46.76 222.0.00 -227.0.00 -281.0.00 270.0.00"/>
    </vehicle>
    <vehicle id="50" depart="0.00">
        <route edges="-196.0.00 261.0.00 -266.0.00 -267.0.00 217.0.00 -222.0.00 202.46.76 202.0.00 -197.0.00 275.0.00 -270.0.00 281.0.00 227.0.00"/>
    </vehicle>
    <vehicle id="51" depart="0.00">
        <route edges="227.0.00 -222.0.00 202.46.76 202.0.00 -209.0.00 -209.46.76 235.0.00 -230.0.00 -283.0.00 280.0.00 -275.0.00 197.0.00"/>
    </vehicle>
    <vehicle id="52" depart="0.00">
        <route edges="-256.0.00 284.0.00 -284.0.00 256.0.00 -261.0.00 196.0.00 -209.0.00 -209.46.76 235.0.00 -242.0.00 242.0.00 -235.0.00 209.46.76"/>
    </vehicle>
    <vehicle id="53" depart="0.00">
        <route edges="-209.0.00 -209.46.76 235.0.00 -230.0.00 -283.0.00 280.0.00 -275.0.00"/>
    </vehicle>
    <vehicle id="54" depart="0.00">
        <route edges="-283.0.00 280.0.00 -270.0.00 281.0.00 227.0.00 -222.0.00 202.46.76 202.0.00 -197.0.00 275.0.00 -280.0.00 283.0.00"/>
    </vehicle>
    <vehicle id="55" depart="0.00">
        <route edges="267.0.00 266.0.00 -261.0.00 196.0.00 -209.0.00 -209.46.76 235.0.00 -242.0.00 242.0.00 -235.0.00"/>
    </vehicle>
    <vehicle id="56" depart="0.00">
        <route edges="196.0.00 -197.0.00 275.0.00 -270.0.00 281.0.00 227.0.00 -222.0.00"/>
    </vehicle>
    <vehicle id="57" depart="0.00">
        <route edges="275.0.00 -280.0.00 283.0.00 230.0.00 -235.0.00 209.46.76 209.0.00 -202.0.00 -202.46.76 222.0.00 -227.0.00 -281.0.00 270.0.00"/>
    </vehicle>
    <vehicle id="58" depart="0.00">
        <route edges="-261.0.00 196.0.00 -209.0.00 -209.46.76 235.0.00 -242.0.00 242.0.00 -235.0.00 209.46.76"/>
    </vehicle>
    <vehicle id="59" depart="0.00">
        <route edges="209.46.76 209.0.00 -202.0.00 -202.46.76 222.0.00 -217.0.00"/>
    </vehicle>
    <vehicle id="60" depart="0.00">
        <route edges="235.0.00 -230.0.00 -283.0.00 280.0.00 -275.0.00 197.0.00"/>
    </vehicle>
    <vehicle id="61" depart="0.00">
        <route edges="242.0.00 -235.0.00 209.46.76 209.0.00 -202.0.00 -202.46.76 222.0.00 -217.0.00 267.0.00 266.0.00 -261.0.00 196.0.00"/>
    </vehicle>
    <vehicle id="62" depart="0.00">
        <route edges="-196.0.00 261.0.00 -256.0.00"/>
    </vehicle>
    <vehicle id="63" depart="0.00">
        <route edges="-196.0.00 261.0.00 -266.0.00 -267.0.00 217.0.00 -222.0.00 202.46.76 202.0.00 -209.0.00 -209.46.76 235.0.00 -230.0.00 -283.0.00 280.0.00"/>
    </vehicle>
    <vehicle id="64" depart="0.00">
        <route edges="267.0.00 266.0.00"/>
    </vehicle>
    <vehicle id="65" depart="0.00">
        <route edges="-266.0.00 -267.0.00 217.0.00 -227.0.00 -281.0.00 270.0.00 -275.0.00 197.0.00 -202.0.00"/>
    </vehicle>
    <vehicle id="66" depart="0.00">
        <route edges="267.0.00 266.0.00 -261.0.00 196.0.00 -197.0.00 275.0.00 -270.0.00 281.0.00"/>
    </vehicle>
    <vehicle id="67" depart="0.00">
        <route edges="-202.46.76 222.0.00 -227.0.00 -281.0.00"/>
    </vehicle>
    <vehicle id="68" depart="0.00">
        <route edges="-202.0.00 -202.46.76 222.0.00 -217.0.00 267.0.00 266.0.00 -261.0.00 196.0.00 -209.0.00 -209.46.76 235.0.00"/>
    </vehicle>
    <vehicle id="69" depart="0.00">
        <route edges="235.0.00 -230.0.00 -283.0.00 280.0.00 -275.0.00 197.0.00 -209.0.00 -209.46.76"/>
    </vehicle>
    <vehicle id="70" depart="0.00">
        <route edges="-284.0.00 256.0.00 -266.0.00 -267.0.00 217.0.00 -227.0.00 -281.0.00 270.0.00 -275.0.00 197.0.00"/>
    </vehicle>
    <vehicle id="71" depart="0.00">
        <route edges="-256.0.00 284.0.00 -284.0.00 256.0.00 -266.0.00 -267.0.00 217.0.00 -227.0.00 -281.0.00 270.0.00"/>
    </vehicle>
    <vehicle id="72" depart="0.00">
        <route edges="-281.0.00 270.0.00 -280.0.00 283.0.00 230.0.00 -229.0.00"/>
    </vehicle>
    <vehicle id="73" depart="0.00">
        <route edges="202.0.00 -197.0.00 275.0.00 -280.0.00 283.0.00 230.0.00"/>
    </vehicle>
    <vehicle id="74" depart="0.00">
        <route edges="-227.0.00 -281.0.00 270.0.00 -275.0.00 197.0.00 -196.0.00 261.0.00 -256.0.00"/>
    </vehicle>
    <vehicle id="75" depart="0.00">
        <route edges="283.0.00 230.0.00 -235.0.00 209.46.76"/>
    </vehicle>
    <vehicle id="76" depart="0.00">
        <route edges="-281.0.00 270.0.00 -275.0.00 197.0.00 -202.0.00 -202.46.76 222.0.00 -217.0.00 267.0.00 266.0.00 -261.0.00 196.0.00"/>
    </vehicle>
    <vehicle id="77" depart="0.00">
        <route edges="-209.46.76 235.0.00 -229.0.00"/>
    </vehicle>
    <vehicle id="78" depart="0.00">
        <route edges="-267.0.00 217.0.00 -222.0.00 202.46.76"/>
    </vehicle>
    <vehicle id="79" depart="0.00">
        <route edges="-230.0.00 -283.0.00 280.0.00 -275.0.00 197.0.00 -209.0.00 -209.46.76 235.0.00 -229.0.00"/>
    </vehicle>
    <vehicle id="80" depart="0.00">
        <route edges="-202.46.76 222.0.00 -227.0.00 -281.0.00 270.0.00 -280.0.00 283.0.00 230.0.00 -235.0.00 209.46.76"/>
    </vehicle>
    <vehicle id="81" depart="0.00">
        <route edges="-230.0.00 -283.0.00 280.0.00 -270.0.00 281.0.00 227.0.00 -222.0.00 202.46.76 202.0.00 -197.0.00 275.0.00"/>
    </vehicle>
    <vehicle id="82" depart="0.00">
        <route edges="266.0.00 -261.0.00 196.0.00 -202.0.00 -202.46.76"/>
    </vehicle>
    <vehicle id="83" depart="0.00">
        <route edges="-235.0.00 209.46.76 209.0.00 -196.0.00 261.0.00 -266.0.00 -267.0.00 217.0.00"/>
    </vehicle>
    <vehicle id="84" depart="0.00">
        <route edges="-230.0.00 -283.0.00 280.0.00 -275.0.00 197.0.00 -209.0.00 -209.46.76"/>
    </vehicle>
    <vehicle id="85" depart="0.00">
        <route edges="280.0.00 -270.0.00 281.0.00 227.0.00 -222.0.00 202.46.76 202.0.00"/>
    </vehicle>
    <vehicle id="86" depart="0.00">
        <route edges="-284.0.00 256.0.00"/>
    </vehicle>
    <vehicle id="87" depart="0.00">
        <route edges="256.0.00 -266.0.00 -267.0.00 217.0.00 -227.0.00"/>
    </vehicle>
    <vehicle id="88" depart="0.00">
        <route edges="-209.0.00 -209.46.76 235.0.00 -230.0.00 -283.0.00 280.0.00 -275.0.00"/>
    </vehicle>
    <vehicle id="89" depart="0.00">
        <route edges="-281.0.00"/>
    </vehicle>
    <vehicle id="90" depart="0.00">
        <route edges="230.0.00 -235.0.00 209.46.76 209.0.00 -196.0.00 261.0.00 -266.0.00 -267.0.00 217.0.00"/>
    </vehicle>
    <vehicle id="91" depart="0.00">
        <route edges="283.0.00 230.0.00 -229.0.00 229.0.00 -230.0.00 -283.0.00 280.0.00 -275.0.00 197.0.00 -209.0.00"/>
    </vehicle>
    <vehicle id="92" depart="0.00">
        <route edges="-280.0.00 283.0.00 230.0.00 -235.0.00 209.46.76 209.0.00 -202.0.00 -202.46.76 222.0.00 -217.0.00 267.0.00 266.0.00 -261.0.00"/>
    </vehicle>
    <vehicle id="93" depart="0.00">
        <route edges="267.0.00 266.0.00 -261.0.00 196.0.00 -209.0.00 -209.46.76 235.0.00 -230.0.00"/>
    </vehicle>
    <vehicle id="94" depart="0.00">
        <route edges="-227.0.00 -281.0.00 270.0.00 -280.0.00"/>
    </vehicle>
    <vehicle id="95" depart="0.00">
        <route edges="-281.0.00 270.0.00 -280.0.00 283.0.00 230.0.00 -235.0.00"/>
    </vehicle>
    <vehicle id="96" depart="0.00">
        <route edges="-235.0.00 209.46.76 209.0.00 -197.0.00 275.0.00 -280.0.00 283.0.00 230.0.00 -229.0.00 229.0.00 -230.0.00 -283.0.00 280.0.00"/>
    </vehicle>
    <vehicle id="97" depart="0.00">
        <route edges="-283.0.00 280.0.00 -275.0.00 197.0.00 -202.0.00 -202.46.76 222.0.00 -227.0.00 -281.0.00 270.0.00"/>
    </vehicle>
    <vehicle id="98" depart="0.00">
        <route edges="202.0.00 -209.0.00 -209.46.76 235.0.00 -242.0.00 242.0.00 -235.0.00 209.46.76 209.0.00 -202.0.00"/>
    </vehicle>
    <vehicle id="99" depart="0.00">
        <route edges="283.0.00 230.0.00 -235.0.00 209.46.76 209.0.00 -202.0.00 -202.46.76 222.0.00 -217.0.00 267.0.00 266.0.00"/>
    </vehicle>
</routes>
