<?xml version="1.0" encoding="UTF-8"?>

<!-- generated on Wed Jul  8 10:55:40 2020 by Eclipse SUMO netconvert Version v1_6_0+0967-40ab6bc76e
<configuration xmlns:xsi="http://www.w3.org/2001/XMLSchema-instance" xsi:noNamespaceSchemaLocation="http://sumo.dlr.de/xsd/netconvertConfiguration.xsd">

    <input>
        <opendrive-files value="/home/e9387011/micke/esmini/resources/xodr/soderleden.xodr"/>
    </input>

    <output>
        <output-file value="/home/e9387011/micke/soderleden.net.xml"/>
    </output>

    <processing>
        <geometry.max-grade.fix value="false"/>
    </processing>

    <tls_building>
        <tls.left-green.time value="0"/>
    </tls_building>

    <junctions>
        <rectangular-lane-cut value="true"/>
    </junctions>

    <report>
        <aggregate-warnings value="5"/>
    </report>

</configuration>
-->

<net version="1.6" junctionCornerDetail="5" rectangularLaneCut="true" limitTurnSpeed="5.50" xmlns:xsi="http://www.w3.org/2001/XMLSchema-instance" xsi:noNamespaceSchemaLocation="http://sumo.dlr.de/xsd/net_file.xsd">

    <location netOffset="231.92,81.07" convBoundary="0.00,0.00,1709.25,105.52" origBoundary="-231.92,-81.07,1476.87,20.95" projParameter="!"/>

    <type id="bidirectional" priority="1" speed="1.39" disallow="pedestrian tram rail_urban rail rail_electric rail_fast ship" width="3.65"/>
    <type id="border" priority="0" speed="1.39" disallow="all" discard="1" width="0.10"/>
    <type id="driving" priority="1" speed="13.89" disallow="pedestrian tram rail_urban rail rail_electric rail_fast ship" width="3.65"/>
    <type id="entry" priority="1" speed="22.22" disallow="pedestrian tram rail_urban rail rail_electric rail_fast ship" width="3.65"/>
    <type id="exit" priority="1" speed="22.22" disallow="pedestrian tram rail_urban rail rail_electric rail_fast ship" width="3.65"/>
    <type id="median" priority="0" speed="1.39" disallow="all" discard="1" width="0.10"/>
    <type id="mwyEntry" priority="1" speed="22.22" allow="private emergency authority army vip passenger hov taxi bus coach delivery truck trailer motorcycle evehicle custom1 custom2" width="3.65"/>
    <type id="mwyExit" priority="1" speed="22.22" allow="private emergency authority army vip passenger hov taxi bus coach delivery truck trailer motorcycle evehicle custom1 custom2" width="3.65"/>
    <type id="none" priority="0" speed="1.39" disallow="all" discard="1" width="1.00"/>
    <type id="offRamp" priority="1" speed="22.22" allow="private emergency authority army vip passenger hov taxi bus coach delivery truck trailer motorcycle evehicle custom1 custom2" width="3.65"/>
    <type id="onRamp" priority="1" speed="22.22" allow="private emergency authority army vip passenger hov taxi bus coach delivery truck trailer motorcycle evehicle custom1 custom2" width="3.65"/>
    <type id="parking" priority="1" speed="1.39" disallow="pedestrian tram rail_urban rail rail_electric rail_fast ship" width="2.50"/>
    <type id="rail" priority="3" speed="33.33" allow="rail_urban rail rail_electric rail_fast" width="3.65"/>
    <type id="restricted" priority="0" speed="13.89" disallow="all" width="3.65"/>
    <type id="roadWorks" priority="0" speed="1.39" allow="authority" width="3.65"/>
    <type id="shoulder" priority="0" speed="1.39" disallow="all" discard="1" width="1.00"/>
    <type id="special1" priority="1" speed="22.22" allow="custom1" discard="1" width="3.65"/>
    <type id="special2" priority="1" speed="22.22" allow="custom2" discard="1" width="3.65"/>
    <type id="special3" priority="1" speed="22.22" allow="custom1 custom2" discard="1" width="3.65"/>
    <type id="stop" priority="1" speed="13.89" disallow="pedestrian tram rail_urban rail rail_electric rail_fast ship" width="3.65"/>
    <type id="tram" priority="2" speed="13.89" allow="tram" width="3.65"/>

    <edge id=":0.100.00_0" function="internal">
        <lane id=":0.100.00_0_0" index="0" disallow="pedestrian tram rail_urban rail rail_electric rail_fast ship" speed="13.89" length="8.00" width="3.50" shape="335.82,96.46 343.82,96.36"/>
        <lane id=":0.100.00_0_1" index="1" disallow="pedestrian tram rail_urban rail rail_electric rail_fast ship" speed="13.89" length="8.00" width="3.50" shape="335.86,99.96 343.86,99.86"/>
    </edge>
    <edge id=":0.87.34_0" function="internal">
        <lane id=":0.87.34_0_0" index="0" allow="emergency authority" speed="13.89" length="3.05" width="1.78" shape="325.63,93.09 326.54,93.21 327.14,93.50 327.73,93.79 328.64,93.91"/>
        <lane id=":0.87.34_0_1" index="1" disallow="pedestrian tram rail_urban rail rail_electric rail_fast ship" speed="13.89" length="3.05" width="3.50" shape="325.68,96.59 328.68,96.55"/>
        <lane id=":0.87.34_0_2" index="2" disallow="pedestrian tram rail_urban rail rail_electric rail_fast ship" speed="13.89" length="3.05" width="3.50" shape="325.72,100.09 328.72,100.05"/>
    </edge>
    <edge id=":2.173.67_0" function="internal">
        <lane id=":2.173.67_0_0" index="0" disallow="pedestrian tram rail_urban rail rail_electric rail_fast ship" speed="13.89" length="0.10" width="3.50" shape="173.65,98.46 173.66,98.46"/>
        <lane id=":2.173.67_0_1" index="1" disallow="pedestrian tram rail_urban rail rail_electric rail_fast ship" speed="13.89" length="0.10" width="3.50" shape="173.68,101.96 173.69,101.96"/>
    </edge>
    <edge id=":5.1_0" function="internal">
        <lane id=":5.1_0_0" index="0" disallow="pedestrian tram rail_urban rail rail_electric rail_fast ship" speed="13.89" length="0.10" width="3.50" shape="174.21,90.00 174.20,90.00"/>
    </edge>

    <edge id="-0.0.00" from="0.begin" to="0.87.34" priority="1" type="driving" shape="239.88,103.02 241.88,102.99 243.87,102.96 245.86,102.93 247.86,102.90 249.85,102.87 251.84,102.84 253.84,102.81 255.83,102.78 257.83,102.75 259.82,102.72 261.81,102.69 263.81,102.66 265.80,102.64 267.79,102.61 269.79,102.58 271.78,102.55 273.77,102.52 275.77,102.50 277.76,102.47 279.76,102.44 281.75,102.41 283.74,102.39 285.74,102.36 287.73,102.33 289.72,102.31 291.72,102.28 293.71,102.25 295.70,102.23 297.70,102.20 299.69,102.17 301.69,102.15 303.68,102.12 305.67,102.10 307.67,102.07 309.66,102.04 311.65,102.02 313.65,101.99 315.64,101.97 317.64,101.94 319.63,101.91 321.62,101.89 323.62,101.86 325.61,101.84 327.24,101.82">
        <lane id="-0.0.00_0" index="0" disallow="pedestrian tram rail_urban rail rail_electric rail_fast ship" speed="13.89" length="85.88" width="3.50" shape="239.75,94.27 241.74,94.24 243.74,94.21 245.73,94.18 247.73,94.15 249.72,94.12 251.72,94.09 253.71,94.06 255.70,94.03 257.70,94.00 259.69,93.97 261.69,93.94 263.68,93.92 265.68,93.89 267.67,93.86 269.66,93.83 271.66,93.80 273.65,93.77 275.65,93.75 277.64,93.72 279.63,93.69 281.63,93.66 283.62,93.64 285.62,93.61 287.61,93.58 289.61,93.56 291.60,93.53 293.59,93.50 295.59,93.48 297.58,93.45 299.58,93.42 301.57,93.40 303.57,93.37 305.56,93.35 307.55,93.32 309.55,93.29 311.54,93.27 313.54,93.24 315.53,93.22 317.52,93.19 319.52,93.17 321.51,93.14 323.51,93.11 325.50,93.09 325.63,93.09" type="driving"/>
        <lane id="-0.0.00_1" index="1" disallow="pedestrian tram rail_urban rail rail_electric rail_fast ship" speed="13.89" length="85.88" width="3.50" shape="239.80,97.77 241.80,97.74 243.79,97.71 245.78,97.68 247.78,97.65 249.77,97.62 251.77,97.59 253.76,97.56 255.75,97.53 257.75,97.50 259.74,97.47 261.74,97.44 263.73,97.42 265.72,97.39 267.72,97.36 269.71,97.33 271.71,97.30 273.70,97.27 275.69,97.25 277.69,97.22 279.68,97.19 281.68,97.16 283.67,97.14 285.67,97.11 287.66,97.08 289.65,97.06 291.65,97.03 293.64,97.00 295.63,96.98 297.63,96.95 299.62,96.92 301.62,96.90 303.61,96.87 305.60,96.85 307.60,96.82 309.59,96.79 311.59,96.77 313.58,96.74 315.57,96.72 317.57,96.69 319.56,96.67 321.56,96.64 323.55,96.61 325.54,96.59 325.68,96.59" type="driving"/>
        <lane id="-0.0.00_2" index="2" disallow="pedestrian tram rail_urban rail rail_electric rail_fast ship" speed="13.89" length="85.88" width="3.50" shape="239.86,101.27 241.85,101.24 243.84,101.21 245.84,101.18 247.83,101.15 249.82,101.12 251.82,101.09 253.81,101.06 255.81,101.03 257.80,101.00 259.79,100.97 261.79,100.94 263.78,100.91 265.77,100.89 267.77,100.86 269.76,100.83 271.76,100.80 273.75,100.77 275.74,100.75 277.74,100.72 279.73,100.69 281.72,100.66 283.72,100.64 285.71,100.61 287.71,100.58 289.70,100.56 291.69,100.53 293.69,100.50 295.68,100.48 297.68,100.45 299.67,100.42 301.66,100.40 303.66,100.37 305.65,100.35 307.64,100.32 309.64,100.29 311.63,100.27 313.63,100.24 315.62,100.22 317.61,100.19 319.61,100.17 321.60,100.14 323.60,100.11 325.59,100.09 325.72,100.09" type="driving"/>
    </edge>
    <edge id="-0.100.00" from="0.100.00" to="0.end" priority="1" type="driving" shape="339.90,101.66 341.56,101.64 343.56,101.61 345.55,101.59 347.54,101.56 349.54,101.54 351.53,101.51 353.53,101.49 355.52,101.46 357.51,101.44 359.51,101.41 361.50,101.39 363.50,101.36 365.49,101.34 367.48,101.31 369.48,101.29 371.47,101.26 373.47,101.24 375.46,101.21 377.45,101.19 379.45,101.16 381.44,101.14 383.44,101.11 385.43,101.09 387.42,101.06 389.42,101.04 391.41,101.01 393.41,100.99 395.40,100.96 397.39,100.93 399.39,100.91 401.38,100.88 403.38,100.86 405.37,100.83 407.36,100.81 409.36,100.78 411.35,100.75 413.35,100.73 415.34,100.70 417.33,100.67 419.33,100.65 421.32,100.62 423.32,100.59 425.31,100.57 427.30,100.54 429.30,100.51 431.29,100.49 433.29,100.46 435.28,100.43 437.27,100.40 439.27,100.38 441.26,100.35 443.26,100.32 445.25,100.29 447.25,100.26 449.24,100.24 451.23,100.21 453.23,100.18 455.22,100.15 457.22,100.12 459.21,100.09 461.20,100.06 463.20,100.03 465.19,100.00 467.19,99.97 469.18,99.94 471.18,99.91 473.17,99.88 475.16,99.85 477.16,99.82 479.15,99.79 481.15,99.76 483.14,99.73 485.13,99.70 487.13,99.66 489.12,99.63 491.12,99.60 493.11,99.57 495.11,99.54 497.10,99.50 499.09,99.47 501.09,99.44 503.08,99.40 505.08,99.37 507.07,99.33 509.06,99.30 511.06,99.27 513.05,99.23 515.05,99.20 517.04,99.16 519.04,99.12 521.03,99.09 523.02,99.05 525.02,99.02 527.01,98.98 529.01,98.94 531.00,98.91 533.00,98.87 534.99,98.83 536.98,98.79 538.98,98.75 540.97,98.72 542.97,98.68 544.96,98.64 546.96,98.60 548.95,98.56 550.94,98.52 552.94,98.48 554.93,98.44 556.93,98.39 558.92,98.35 560.91,98.31 562.91,98.27 564.90,98.23 566.90,98.18 568.89,98.14 570.89,98.10 572.88,98.05 574.87,98.01 576.87,97.96 578.86,97.92 580.86,97.87 582.85,97.83 584.85,97.78 586.84,97.74 588.83,97.69 590.83,97.64 592.82,97.59 594.80,97.55 596.79,97.50 598.78,97.45 600.76,97.41 602.75,97.36 604.74,97.31 606.72,97.26 608.71,97.22 610.70,97.17 612.68,97.12 614.67,97.08 616.66,97.03 618.65,96.98 620.63,96.93 622.62,96.89 624.61,96.84 626.59,96.79 628.58,96.74 630.57,96.69 632.56,96.65 634.54,96.60 636.53,96.55 638.52,96.50 640.50,96.45 642.49,96.40 644.48,96.35 646.47,96.31 648.45,96.26 650.44,96.21 652.43,96.16 654.42,96.11 656.40,96.06 658.39,96.01 660.38,95.95 662.36,95.90 664.35,95.85 666.34,95.80 668.33,95.75 670.31,95.69 672.30,95.64 674.29,95.59 676.28,95.54 678.26,95.48 680.25,95.43 682.24,95.37 684.23,95.32 686.21,95.26 688.20,95.21 690.19,95.15 692.18,95.09 694.16,95.04 696.15,94.98 698.14,94.92 700.12,94.86 702.11,94.80 704.10,94.75 706.09,94.69 708.07,94.63 710.06,94.56 712.05,94.50 714.04,94.44 716.02,94.38 718.01,94.32 720.00,94.25 721.99,94.19 723.97,94.12 725.96,94.06 727.95,93.99 729.94,93.93 731.92,93.86 733.91,93.79 735.90,93.72 737.89,93.65 739.87,93.59 741.86,93.52 743.85,93.44 745.83,93.37 747.82,93.30 749.81,93.23 751.80,93.15 753.78,93.08 755.77,93.00 757.76,92.93 759.75,92.85 761.73,92.77 763.72,92.70 765.71,92.62 767.70,92.54 769.68,92.46 771.67,92.38 773.66,92.29 775.64,92.21 777.63,92.13 779.62,92.04 781.61,91.96 783.59,91.87 785.58,91.78 787.57,91.70 789.55,91.61 791.54,91.52 793.53,91.43 795.52,91.34 797.50,91.24 799.49,91.15 801.48,91.06 803.46,90.96 805.45,90.86 807.44,90.77 809.42,90.67 811.41,90.57 813.40,90.47 815.39,90.37 817.38,90.27 819.36,90.16 821.35,90.06 823.34,89.96 825.33,89.86 827.32,89.75 829.30,89.65 831.29,89.55 833.28,89.44 835.27,89.34 837.26,89.23 839.25,89.13 841.23,89.02 843.22,88.92 845.21,88.81 847.20,88.71 849.19,88.60 851.17,88.49 853.16,88.39 855.15,88.28 857.14,88.17 859.13,88.06 861.11,87.95 863.10,87.84 865.09,87.74 867.08,87.63 869.07,87.52 871.05,87.41 873.04,87.29 875.03,87.18 877.02,87.07 879.00,86.96 880.99,86.85 882.98,86.74 884.97,86.62 886.96,86.51 888.94,86.40 890.93,86.28 892.92,86.17 894.91,86.05 896.89,85.94 898.88,85.82 900.87,85.71 902.86,85.59 904.84,85.48 906.83,85.36 908.82,85.24 910.81,85.12 912.79,85.01 914.78,84.89 916.77,84.77 918.76,84.65 920.74,84.53 922.73,84.41 924.72,84.29 926.71,84.17 928.69,84.05 930.68,83.93 932.67,83.81 934.66,83.69 936.64,83.56 938.63,83.44 940.62,83.32 942.60,83.20 944.59,83.07 946.58,82.95 948.57,82.82 950.55,82.70 952.54,82.57 954.53,82.45 956.51,82.32 958.50,82.20 960.49,82.07 962.47,81.94 964.46,81.81 966.45,81.69 968.44,81.56 970.42,81.43 972.41,81.30 974.40,81.17 976.38,81.04 978.37,80.91 980.36,80.78 982.34,80.65 984.33,80.52 986.32,80.39 988.30,80.25 990.29,80.12 992.28,79.99 994.26,79.85 996.25,79.72 998.24,79.59 1000.22,79.45 1002.21,79.32 1004.19,79.18 1006.18,79.05 1008.17,78.91 1010.15,78.77 1012.14,78.64 1014.13,78.50 1016.11,78.36 1018.10,78.22 1020.08,78.08 1022.07,77.94 1024.06,77.81 1026.04,77.67 1028.03,77.53 1030.02,77.38 1032.00,77.24 1033.99,77.10 1035.97,76.96 1037.96,76.82 1039.95,76.67 1041.93,76.53 1043.92,76.39 1045.90,76.24 1047.89,76.10 1049.87,75.95 1051.86,75.81 1053.85,75.66 1055.83,75.52 1057.82,75.37 1059.80,75.22 1061.79,75.08 1063.77,74.93 1065.76,74.78 1067.74,74.63 1069.73,74.48 1071.72,74.33 1073.70,74.18 1075.69,74.03 1077.67,73.88 1079.66,73.73 1081.64,73.58 1083.63,73.43 1085.61,73.27 1087.60,73.12 1089.58,72.97 1091.57,72.81 1093.55,72.66 1095.54,72.50 1097.52,72.35 1099.51,72.19 1101.49,72.04 1103.48,71.88 1105.46,71.72 1107.45,71.57 1109.43,71.41 1111.42,71.25 1113.40,71.09 1115.39,70.93 1117.37,70.77 1119.36,70.61 1121.34,70.45 1123.33,70.29 1125.31,70.13 1127.29,69.97 1129.28,69.80 1131.26,69.64 1133.25,69.48 1135.23,69.31 1137.22,69.15 1139.20,68.98 1141.19,68.82 1143.17,68.65 1145.15,68.49 1147.14,68.32 1149.12,68.15 1151.11,67.99 1153.09,67.82 1155.07,67.65 1157.06,67.48 1159.04,67.31 1161.03,67.14 1163.01,66.97 1164.99,66.80 1166.98,66.63 1168.96,66.46 1170.95,66.28 1172.93,66.11 1174.91,65.94 1176.90,65.76 1178.88,65.59 1180.86,65.42 1182.85,65.24 1184.83,65.06 1186.81,64.89 1188.80,64.71 1190.78,64.53 1192.76,64.36 1194.75,64.18 1196.73,64.00 1198.71,63.82 1200.70,63.64 1202.68,63.46 1204.67,63.28 1206.66,63.10 1208.65,62.92 1210.63,62.73 1212.62,62.55 1214.61,62.37 1216.60,62.18 1218.58,61.99 1220.57,61.81 1222.56,61.62 1224.54,61.43 1226.53,61.25 1228.52,61.06 1230.50,60.87 1232.49,60.68 1234.48,60.49 1236.46,60.30 1238.45,60.10 1240.44,59.91 1242.42,59.72 1244.41,59.53 1246.40,59.33 1248.38,59.14 1250.37,58.94 1252.35,58.75 1254.34,58.55 1256.33,58.35 1258.31,58.16 1260.30,57.96 1262.28,57.76 1264.27,57.56 1266.25,57.36 1268.24,57.16 1270.22,56.96 1272.21,56.76 1274.20,56.56 1276.18,56.35 1278.17,56.15 1280.15,55.95 1282.14,55.74 1284.12,55.54 1286.11,55.33 1288.09,55.13 1290.08,54.92 1292.06,54.72 1294.05,54.51 1296.03,54.30 1298.01,54.09 1300.00,53.89 1301.98,53.68 1303.97,53.47 1305.95,53.26 1307.94,53.05 1309.92,52.84 1311.91,52.63 1313.89,52.41 1315.87,52.20 1317.86,51.99 1319.84,51.77 1321.83,51.56 1323.81,51.35 1325.79,51.13 1327.78,50.92 1329.76,50.70 1331.74,50.49 1333.73,50.27 1335.71,50.05 1337.70,49.84 1339.68,49.62 1341.66,49.40 1343.65,49.18 1345.63,48.96 1347.61,48.74 1349.60,48.52 1351.58,48.30 1353.56,48.08 1355.55,47.86 1357.53,47.64 1359.51,47.42 1361.49,47.20 1363.48,46.97 1365.46,46.75 1367.44,46.53 1369.43,46.30 1371.41,46.08 1373.39,45.86 1375.37,45.63 1377.36,45.41 1379.34,45.18 1381.32,44.96 1383.30,44.73 1385.29,44.50 1387.27,44.28 1389.25,44.05 1391.23,43.82 1393.22,43.59 1395.20,43.36 1397.18,43.14 1399.16,42.91 1401.14,42.68 1403.13,42.45 1405.11,42.22 1407.09,41.99 1409.07,41.76 1411.05,41.53 1413.04,41.30 1415.02,41.06 1417.00,40.83 1418.98,40.60 1420.96,40.37 1422.94,40.14 1424.93,39.90 1426.91,39.67 1428.89,39.44 1430.87,39.20 1432.85,38.97 1434.83,38.73 1436.82,38.50 1438.80,38.26 1440.78,38.03 1442.76,37.79 1444.74,37.56 1446.72,37.32 1448.70,37.09 1450.68,36.85 1452.66,36.61 1454.65,36.38 1456.63,36.14 1458.61,35.90 1460.59,35.67 1462.57,35.43 1464.55,35.19 1466.53,34.95 1468.51,34.71 1470.49,34.48 1472.47,34.24 1474.45,34.00 1476.43,33.76 1478.42,33.52 1480.40,33.28 1482.38,33.04 1484.36,32.80 1486.34,32.56 1488.32,32.32 1490.30,32.08 1492.28,31.84 1494.26,31.60 1496.24,31.36 1498.22,31.12 1500.20,30.87 1502.18,30.63 1504.16,30.39 1506.14,30.15 1508.12,29.91 1510.10,29.67 1512.08,29.42 1514.06,29.18 1516.04,28.94 1518.02,28.70 1520.00,28.45 1521.98,28.21 1523.96,27.97 1525.94,27.72 1527.92,27.48 1529.90,27.24 1531.88,26.99 1533.86,26.75 1535.84,26.51 1537.82,26.26 1539.80,26.02 1541.78,25.78 1543.76,25.53 1545.74,25.29 1547.72,25.04 1549.70,24.80 1551.68,24.55 1553.66,24.31 1555.64,24.07 1557.62,23.82 1559.60,23.58 1561.58,23.33 1563.56,23.09 1565.54,22.84 1567.51,22.60 1569.49,22.35 1571.47,22.11 1573.45,21.86 1575.43,21.62 1577.40,21.37 1579.37,21.12 1581.34,20.88 1583.31,20.63 1585.29,20.38 1587.26,20.12 1589.23,19.87 1591.20,19.62 1593.17,19.36 1595.14,19.10 1597.11,18.85 1599.08,18.59 1601.05,18.33 1603.02,18.07 1604.99,17.81 1606.96,17.55 1608.93,17.28 1610.90,17.02 1612.87,16.76 1614.84,16.49 1616.81,16.23 1618.78,15.96 1620.75,15.69 1622.71,15.43 1624.68,15.16 1626.65,14.89 1628.62,14.62 1630.59,14.35 1632.56,14.08 1634.52,13.81 1636.49,13.54 1638.46,13.27 1640.43,12.99 1642.39,12.72 1644.36,12.45 1646.33,12.18 1648.29,11.90 1650.26,11.63 1652.23,11.36 1654.20,11.08 1656.16,10.81 1658.13,10.53 1660.10,10.26 1662.06,9.99 1664.03,9.71 1666.00,9.44 1667.96,9.16 1669.93,8.89 1671.90,8.62 1673.86,8.34 1675.83,8.07 1677.79,7.80 1679.76,7.52 1681.73,7.25 1683.69,6.98 1685.66,6.70 1687.63,6.43 1689.59,6.16 1691.56,5.89 1693.52,5.62 1695.49,5.35 1697.46,5.08 1699.42,4.81 1701.39,4.54 1703.36,4.27 1705.32,4.00 1707.29,3.74 1709.25,3.47">
        <lane id="-0.100.00_0" index="0" disallow="pedestrian tram rail_urban rail rail_electric rail_fast ship" speed="13.89" length="1369.65" width="3.50" shape="343.82,96.36 345.48,96.34 347.48,96.31 349.47,96.29 351.47,96.26 353.46,96.24 355.45,96.21 357.45,96.19 359.44,96.16 361.44,96.14 363.43,96.11 365.42,96.09 367.42,96.06 369.41,96.04 371.41,96.01 373.40,95.99 375.39,95.96 377.39,95.94 379.38,95.91 381.37,95.89 383.37,95.86 385.36,95.84 387.36,95.81 389.35,95.79 391.34,95.76 393.34,95.74 395.33,95.71 397.33,95.68 399.32,95.66 401.31,95.63 403.31,95.61 405.30,95.58 407.30,95.56 409.29,95.53 411.28,95.50 413.28,95.48 415.27,95.45 417.26,95.42 419.26,95.40 421.25,95.37 423.25,95.34 425.24,95.32 427.23,95.29 429.23,95.26 431.22,95.24 433.21,95.21 435.21,95.18 437.20,95.15 439.20,95.13 441.19,95.10 443.18,95.07 445.18,95.04 447.17,95.02 449.16,94.99 451.16,94.96 453.15,94.93 455.15,94.90 457.14,94.87 459.13,94.84 461.13,94.81 463.12,94.78 465.11,94.75 467.11,94.72 469.10,94.69 471.10,94.66 473.09,94.63 475.08,94.60 477.08,94.57 479.07,94.54 481.06,94.51 483.06,94.48 485.05,94.45 487.04,94.42 489.04,94.38 491.03,94.35 493.03,94.32 495.02,94.29 497.01,94.25 499.01,94.22 501.00,94.19 502.99,94.15 504.99,94.12 506.98,94.09 508.97,94.05 510.97,94.02 512.96,93.98 514.95,93.95 516.95,93.91 518.94,93.88 520.94,93.84 522.93,93.80 524.92,93.77 526.92,93.73 528.91,93.69 530.90,93.66 532.90,93.62 534.89,93.58 536.88,93.54 538.88,93.50 540.87,93.47 542.86,93.43 544.86,93.39 546.85,93.35 548.84,93.31 550.84,93.27 552.83,93.23 554.82,93.19 556.82,93.15 558.81,93.10 560.80,93.06 562.80,93.02 564.79,92.98 566.78,92.93 568.78,92.89 570.77,92.85 572.76,92.80 574.76,92.76 576.75,92.72 578.74,92.67 580.74,92.62 582.73,92.58 584.72,92.53 586.72,92.49 588.71,92.44 590.70,92.39 592.69,92.35 594.68,92.30 596.66,92.25 598.65,92.20 600.64,92.16 602.63,92.11 604.61,92.06 606.60,92.02 608.59,91.97 610.57,91.92 612.56,91.87 614.55,91.83 616.53,91.78 618.52,91.73 620.51,91.69 622.49,91.64 624.48,91.59 626.47,91.54 628.45,91.49 630.44,91.45 632.43,91.40 634.42,91.35 636.40,91.30 638.39,91.25 640.38,91.20 642.36,91.16 644.35,91.11 646.34,91.06 648.32,91.01 650.31,90.96 652.30,90.91 654.28,90.86 656.27,90.81 658.26,90.76 660.24,90.71 662.23,90.65 664.22,90.60 666.20,90.55 668.19,90.50 670.17,90.45 672.16,90.39 674.15,90.34 676.13,90.29 678.12,90.23 680.11,90.18 682.09,90.12 684.08,90.07 686.07,90.01 688.05,89.96 690.04,89.90 692.03,89.85 694.01,89.79 696.00,89.73 697.98,89.67 699.97,89.62 701.96,89.56 703.94,89.50 705.93,89.44 707.91,89.38 709.90,89.32 711.89,89.26 713.87,89.19 715.86,89.13 717.84,89.07 719.83,89.01 721.82,88.94 723.80,88.88 725.79,88.81 727.77,88.75 729.76,88.68 731.75,88.61 733.73,88.55 735.72,88.48 737.70,88.41 739.69,88.34 741.67,88.27 743.66,88.20 745.65,88.13 747.63,88.05 749.62,87.98 751.60,87.91 753.59,87.83 755.57,87.76 757.56,87.68 759.54,87.61 761.53,87.53 763.51,87.45 765.50,87.37 767.48,87.29 769.47,87.21 771.45,87.13 773.44,87.05 775.42,86.97 777.41,86.88 779.39,86.80 781.38,86.71 783.36,86.63 785.35,86.54 787.33,86.45 789.32,86.36 791.30,86.27 793.29,86.18 795.27,86.09 797.26,86.00 799.24,85.91 801.23,85.81 803.21,85.72 805.20,85.62 807.18,85.52 809.16,85.42 811.15,85.33 813.13,85.23 815.12,85.12 817.11,85.02 819.09,84.92 821.08,84.82 823.07,84.72 825.06,84.61 827.04,84.51 829.03,84.41 831.02,84.30 833.01,84.20 834.99,84.10 836.98,83.99 838.97,83.89 840.96,83.78 842.94,83.68 844.93,83.57 846.92,83.46 848.90,83.36 850.89,83.25 852.88,83.14 854.87,83.04 856.85,82.93 858.84,82.82 860.83,82.71 862.81,82.60 864.80,82.49 866.79,82.38 868.78,82.27 870.76,82.16 872.75,82.05 874.74,81.94 876.72,81.83 878.71,81.72 880.70,81.61 882.68,81.49 884.67,81.38 886.66,81.27 888.64,81.16 890.63,81.04 892.62,80.93 894.60,80.81 896.59,80.70 898.58,80.58 900.56,80.47 902.55,80.35 904.54,80.23 906.52,80.12 908.51,80.00 910.50,79.88 912.48,79.77 914.47,79.65 916.46,79.53 918.44,79.41 920.43,79.29 922.42,79.17 924.40,79.05 926.39,78.93 928.38,78.81 930.36,78.69 932.35,78.57 934.33,78.45 936.32,78.32 938.31,78.20 940.29,78.08 942.28,77.96 944.26,77.83 946.25,77.71 948.24,77.58 950.22,77.46 952.21,77.33 954.20,77.21 956.18,77.08 958.17,76.96 960.15,76.83 962.14,76.70 964.12,76.58 966.11,76.45 968.10,76.32 970.08,76.19 972.07,76.06 974.05,75.93 976.04,75.80 978.03,75.67 980.01,75.54 982.00,75.41 983.98,75.28 985.97,75.15 987.95,75.02 989.94,74.88 991.92,74.75 993.91,74.62 995.90,74.48 997.88,74.35 999.87,74.21 1001.85,74.08 1003.84,73.94 1005.82,73.81 1007.81,73.67 1009.79,73.54 1011.78,73.40 1013.76,73.26 1015.75,73.12 1017.73,72.99 1019.72,72.85 1021.70,72.71 1023.69,72.57 1025.67,72.43 1027.66,72.29 1029.64,72.15 1031.63,72.01 1033.61,71.87 1035.60,71.72 1037.58,71.58 1039.57,71.44 1041.55,71.30 1043.54,71.15 1045.52,71.01 1047.51,70.86 1049.49,70.72 1051.48,70.57 1053.46,70.43 1055.45,70.28 1057.43,70.13 1059.41,69.99 1061.40,69.84 1063.38,69.69 1065.37,69.54 1067.35,69.40 1069.34,69.25 1071.32,69.10 1073.31,68.95 1075.29,68.80 1077.27,68.65 1079.26,68.50 1081.24,68.34 1083.23,68.19 1085.21,68.04 1087.19,67.89 1089.18,67.73 1091.16,67.58 1093.15,67.42 1095.13,67.27 1097.11,67.11 1099.10,66.96 1101.08,66.80 1103.06,66.65 1105.05,66.49 1107.03,66.33 1109.02,66.17 1111.00,66.02 1112.98,65.86 1114.97,65.70 1116.95,65.54 1118.93,65.38 1120.92,65.22 1122.90,65.06 1124.88,64.89 1126.87,64.73 1128.85,64.57 1130.83,64.41 1132.82,64.24 1134.80,64.08 1136.78,63.92 1138.77,63.75 1140.75,63.59 1142.73,63.42 1144.72,63.25 1146.70,63.09 1148.68,62.92 1150.66,62.75 1152.65,62.59 1154.63,62.42 1156.61,62.25 1158.60,62.08 1160.58,61.91 1162.56,61.74 1164.54,61.57 1166.53,61.40 1168.51,61.23 1170.49,61.05 1172.47,60.88 1174.46,60.71 1176.44,60.53 1178.42,60.36 1180.40,60.19 1182.38,60.01 1184.37,59.83 1186.35,59.66 1188.33,59.48 1190.31,59.31 1192.30,59.13 1194.28,58.95 1196.26,58.77 1198.24,58.59 1200.22,58.41 1202.21,58.23 1204.19,58.05 1206.18,57.87 1208.17,57.69 1210.15,57.51 1212.14,57.32 1214.12,57.14 1216.11,56.95 1218.09,56.77 1220.08,56.58 1222.06,56.39 1224.05,56.21 1226.04,56.02 1228.02,55.83 1230.01,55.64 1231.99,55.45 1233.98,55.26 1235.96,55.07 1237.95,54.88 1239.93,54.69 1241.91,54.49 1243.90,54.30 1245.88,54.11 1247.87,53.91 1249.85,53.72 1251.84,53.52 1253.82,53.33 1255.81,53.13 1257.79,52.93 1259.78,52.73 1261.76,52.54 1263.74,52.34 1265.73,52.14 1267.71,51.94 1269.70,51.74 1271.68,51.54 1273.66,51.33 1275.65,51.13 1277.63,50.93 1279.62,50.73 1281.60,50.52 1283.58,50.32 1285.57,50.11 1287.55,49.91 1289.53,49.70 1291.52,49.50 1293.50,49.29 1295.48,49.08 1297.47,48.87 1299.45,48.66 1301.43,48.46 1303.42,48.25 1305.40,48.04 1307.38,47.83 1309.37,47.62 1311.35,47.40 1313.33,47.19 1315.31,46.98 1317.30,46.77 1319.28,46.56 1321.26,46.34 1323.25,46.13 1325.23,45.91 1327.21,45.70 1329.19,45.48 1331.18,45.27 1333.16,45.05 1335.14,44.83 1337.12,44.62 1339.11,44.40 1341.09,44.18 1343.07,43.96 1345.05,43.74 1347.04,43.53 1349.02,43.31 1351.00,43.09 1352.98,42.87 1354.96,42.64 1356.95,42.42 1358.93,42.20 1360.91,41.98 1362.89,41.76 1364.87,41.53 1366.86,41.31 1368.84,41.09 1370.82,40.86 1372.80,40.64 1374.78,40.41 1376.76,40.19 1378.75,39.96 1380.73,39.74 1382.71,39.51 1384.69,39.29 1386.67,39.06 1388.65,38.83 1390.63,38.60 1392.62,38.38 1394.60,38.15 1396.58,37.92 1398.56,37.69 1400.54,37.46 1402.52,37.23 1404.50,37.00 1406.48,36.77 1408.47,36.54 1410.45,36.31 1412.43,36.08 1414.41,35.85 1416.39,35.62 1418.37,35.39 1420.35,35.15 1422.33,34.92 1424.31,34.69 1426.29,34.46 1428.27,34.22 1430.26,33.99 1432.24,33.75 1434.22,33.52 1436.20,33.29 1438.18,33.05 1440.16,32.82 1442.14,32.58 1444.12,32.35 1446.10,32.11 1448.08,31.87 1450.06,31.64 1452.04,31.40 1454.02,31.16 1456.00,30.93 1457.98,30.69 1459.96,30.45 1461.94,30.22 1463.92,29.98 1465.90,29.74 1467.88,29.50 1469.86,29.26 1471.85,29.02 1473.83,28.79 1475.81,28.55 1477.79,28.31 1479.77,28.07 1481.75,27.83 1483.73,27.59 1485.71,27.35 1487.69,27.11 1489.67,26.87 1491.65,26.63 1493.63,26.39 1495.61,26.14 1497.59,25.90 1499.57,25.66 1501.54,25.42 1503.52,25.18 1505.50,24.94 1507.48,24.70 1509.46,24.45 1511.44,24.21 1513.42,23.97 1515.40,23.73 1517.38,23.48 1519.36,23.24 1521.34,23.00 1523.32,22.76 1525.30,22.51 1527.28,22.27 1529.26,22.03 1531.24,21.78 1533.22,21.54 1535.20,21.30 1537.18,21.05 1539.16,20.81 1541.14,20.56 1543.12,20.32 1545.10,20.08 1547.08,19.83 1549.06,19.59 1551.04,19.34 1553.01,19.10 1554.99,18.86 1556.97,18.61 1558.95,18.37 1560.93,18.12 1562.91,17.88 1564.89,17.63 1566.87,17.39 1568.85,17.14 1570.83,16.90 1572.81,16.65 1574.78,16.41 1576.75,16.16 1578.72,15.92 1580.68,15.67 1582.65,15.42 1584.62,15.17 1586.59,14.92 1588.56,14.66 1590.53,14.41 1592.49,14.15 1594.46,13.90 1596.43,13.64 1598.40,13.38 1600.37,13.12 1602.33,12.87 1604.30,12.60 1606.27,12.34 1608.24,12.08 1610.20,11.82 1612.17,11.55 1614.14,11.29 1616.11,11.02 1618.07,10.76 1620.04,10.49 1622.01,10.22 1623.97,9.96 1625.94,9.69 1627.91,9.42 1629.87,9.15 1631.84,8.88 1633.81,8.61 1635.77,8.34 1637.74,8.06 1639.71,7.79 1641.67,7.52 1643.64,7.25 1645.61,6.98 1647.57,6.70 1649.54,6.43 1651.51,6.16 1653.47,5.88 1655.44,5.61 1657.41,5.33 1659.37,5.06 1661.34,4.79 1663.30,4.51 1665.27,4.24 1667.24,3.96 1669.20,3.69 1671.17,3.42 1673.14,3.14 1675.10,2.87 1677.07,2.60 1679.04,2.32 1681.01,2.05 1682.97,1.78 1684.94,1.50 1686.91,1.23 1688.87,0.96 1690.84,0.69 1692.81,0.42 1694.78,0.15 1696.74,-0.12 1698.71,-0.39 1700.68,-0.66 1702.65,-0.93 1704.61,-1.20 1706.58,-1.47 1708.55,-1.73" type="driving"/>