<?xml version="1.0" encoding="UTF-8"?>
<routes>
  <vType accel="3.0" decel="6.0" id="CarA" length="5.0" minGap="2.5" maxSpeed="50.0" sigma="0.5" />
  <vType accel="2.0" decel="6.0" id="CarB" length="7.5" minGap="2.5" maxSpeed="50.0" sigma="0.5" />
  <vType accel="1.0" decel="5.0" id="CarC" length="5.0" minGap="2.5" maxSpeed="40.0" sigma="0.5" />
  <vType accel="1.0" decel="5.0" id="CarD" length="7.5" minGap="2.5" maxSpeed="30.0" sigma="0.5" />
  <route id="route01" departLane="free" edges="-2.0.00 -2.173.67 -0.0.00 -0.87.34 -0.100.00"/>
  <route id="route02" departLane="free" edges="-1.0.00 -5.0.00 -0.0.00 -0.87.34 -0.100.00"/>


   <vehicle depart="0" id="veh0" route="route01" type="CarA" color="1,0,0" />
   <vehicle depart="0" id="veh1" route="route01" type="CarA" color="1,0,0" />
   <vehicle depart="0" id="veh2" route="route01" type="CarA" color="1,0,0" />
   <vehicle depart="0" id="veh3" route="route01" type="CarA" color="1,0,0" />
   <vehicle depart="0" id="veh4" route="route01" type="CarA" color="1,0,0" />
   <vehicle depart="0" id="veh5" route="route01" type="CarA" color="1,0,0" />
   <vehicle depart="0" id="veh6" route="route01" type="CarA" color="1,0,0" />
   <vehicle depart="0" id="veh7" route="route01" type="CarA" color="1,0,0" />





</routes>