<?xml version="1.0" encoding="UTF-8"?>
<routes>
   <vType accel="10.0" decel="10.0" id="CarA" length="5.0" minGap="2.5" maxSpeed="10.0" sigma="0.5"/>
   <vType accel="10.0" decel="10.0" id="CarB" length="5.0" minGap="2.5" maxSpeed="10.0" sigma="0.5"/>
   <route id="route01" edges="-1.0.00 1.0.00"/>
   <vehicle depart="0" id="veh0" route="route01" type="CarA" color="1,0,0" vClass="ignoring"/>
   <vehicle depart="3" id="veh1" route="route01" type="CarA" color="1,0,0" vClass="ignoring"/>
</routes>